pglib-opf-17.08/pglib_opf_case9241_pegase.m
%%%%%%%%%%%%%%%%%%%%%%%%%%%%%%%%%%%%%%%%%%%%%%%%%%%%%%%%%%%%%%%%%%%%%%%%%%%
%%%%                                                                  %%%%%
%%%%    IEEE PES Power Grid Library - Optimal Power Flow - v17.08     %%%%%
%%%%          (https://github.com/power-grid-lib/pglib-opf)           %%%%%
%%%%               Benchmark Group - Typical Operations               %%%%%
%%%%                        30 - August - 2017                        %%%%%
%%%%                                                                  %%%%%
%%%%%%%%%%%%%%%%%%%%%%%%%%%%%%%%%%%%%%%%%%%%%%%%%%%%%%%%%%%%%%%%%%%%%%%%%%%
%
%CASE9241PEGASE  Power flow data for European system.
%   Please see CASEFORMAT for details on the case file format.
%
%   This case accurately represents the size and complexity of the European
%   high voltage transmission network. The network contains 9,241 buses,
%   1,445 generators, and 16,049 branches and it operates at 750, 400, 380,
%   330, 220, 154, 150, 120, and 110 kV. Please note that the data are
%   fictitious and do not correspond to real world data. They can thus be
%   used to validate methods and tools but should not be used for operation
%   and planning of the European grid.
%
%   The data stems from the Pan European Grid Advanced Simulation and State
%   Estimation (PEGASE) project, part of the 7th Framework Program of the
%   European Union (http://www.fp7-pegase.com/). When publishing results
%   based on this data, please cite:
%
%     S. Fliscounakis, P. Panciatici, F. Capitanescu, and L. Wehenkel,
%     "Contingency ranking with respect to overloads in very large power
%     systems taking into account uncertainty, preventive and corrective
%     actions", Power Systems, IEEE Trans. on, (28)4:4909-4917, 2013.
%     http://dx.doi.org/10.1109/TPWRS.2013.2251015
%
%   Remarks:
%
%   1. Line flow limits are the current flow limits found in PEGASE data.
%
%   2. PEGASE data contains asymmetric shunt conductance and susceptance in
%   the PI transmission line model of branches. Thus total line charging
%   susceptance of branches is set to 0 p.u. and the nodal representation
%   of shunt condutance and susceptance is used. As a result, power flow
%   equations are left unchanged compared with original PEGASE data.
%   However, line flow constraints in the optimal flow problem are
%   modified.
%
%   3. Identical linear costs are used for all generators to form a loss
%   minimizing OPF objective function.
%
%   4. Since some parts of the network are aggregated, some generators
%   (e.g. with negative PMIN) represent aggregations of multiple loads
%   and generators.
%
%   Cédric Josz, Stéphane Fliscounakis, Jean Maeght, Patrick Panciatici
%   firstname.lastname@rte-france.com
%   Réseau de Transport d'Electricité (French Transmission System Operator)
%   Département Expertise Système, Immeuble "Le Colbert"
%   9 rue de la Porte de Buc, 78000 Versailles Cedex, France
%   March 18th, 2015
%
%   Copyright (c) 2015 by Cédric Josz, Stéphane Fliscounakis, Jean Maeght,
%   and Patrick Panciatici
%   Licensed under the Creative Commons Attribution 4.0 International license,
%   http://creativecommons.org/licenses/by/4.0/
%
function mpc = pglib_opf_case9241_pegase
mpc.version = '2';
mpc.baseMVA = 100.0;

%% bus data
%	bus_i	type	Pd	Qd	Gs	Bs	area	Vm	Va	baseKV	zone	Vmax	Vmin
mpc.bus = [
	1	 1	 378.4	 98.5	 0.0	 16.61	 0	    1.00000	    0.00000	 220.0	 6	    1.10000	    0.90000;
	2	 2	 0.0	 0.0	 0.0	 0.0	 0	    1.00000	    0.00000	 154.0	 1	    1.10000	    0.90000;
	3	 1	 151.0	 48.8	 0.0	 4.69	 0	    1.00000	    0.00000	 220.0	 5	    1.10000	    0.90000;
	4	 1	 171.41	 23.4	 0.0	 2.1	 0	    1.00000	    0.00000	 220.0	 5	    1.10000	    0.90000;
	5	 1	 45.95	 14.0	 0.0	 13.34	 0	    1.00000	    0.00000	 220.0	 6	    1.10000	    0.90000;
	6	 2	 0.0	 0.0	 0.0	 0.0	 0	    1.00000	    0.00000	 380.0	 6	    1.10000	    0.90000;
	7	 1	 31.03	 10.3	 0.0	 0.65	 0	    1.00000	    0.00000	 110.0	 21	    1.10000	    0.90000;
	8	 2	 0.0	 0.0	 0.0	 0.0	 0	    1.00000	    0.00000	 154.0	 1	    1.10000	    0.90000;
	9	 1	 14.3	 2.0	 0.0	 1.91	 0	    1.00000	    0.00000	 154.0	 1	    1.10000	    0.90000;
	10	 1	 134.0	 24.7	 0.0	 12.44	 0	    1.00000	    0.00000	 220.0	 5	    1.10000	    0.90000;
	11	 1	 0.0	 0.0	 0.0	 0.0	 0	    1.00000	    0.00000	 150.0	 9	    1.10000	    0.90000;
	12	 1	 -6.11	 2.0	 0.0	 0.47	 0	    1.00000	    0.00000	 150.0	 9	    1.10000	    0.90000;
	13	 1	 -22.74	 -8.32	 0.0	 6.5	 0	    1.00000	    0.00000	 220.0	 6	    1.10000	    0.90000;
	14	 1	 13.5	 14.8	 0.0	 132.435168	 0	    1.00000	    0.00000	 380.0	 9	    1.30000	    0.70000;
	15	 1	 59.67	 26.7	 0.0	 12.84	 0	    1.00000	    0.00000	 220.0	 4	    1.10000	    0.90000;
	16	 1	 30.6	 4.3	 0.0	 5.15	 0	    1.00000	    0.00000	 154.0	 1	    1.10000	    0.90000;
	17	 1	 67.68	 12.1	 0.0	 2.18	 0	    1.00000	    0.00000	 220.0	 3	    1.10000	    0.90000;
	18	 2	 0.0	 0.0	 0.0	 0.0	 0	    1.00000	    0.00000	 380.0	 3	    1.10000	    0.90000;
	19	 1	 25.33	 7.5	 0.0	 2.39	 0	    1.00000	    0.00000	 110.0	 12	    1.10000	    0.90000;
	20	 1	 1.4	 0.2	 0.0	 4.93	 0	    1.00000	    0.00000	 154.0	 1	    1.10000	    0.90000;
	21	 1	 161.2	 39.3	 0.0	 30.71	 0	    1.00000	    0.00000	 220.0	 5	    1.10000	    0.90000;
	22	 1	 0.0	 -0.0	 0.0	 0.85	 0	    1.00000	    0.00000	 220.0	 5	    1.10000	    0.90000;
	23	 1	 19.62	 7.1	 0.0	 1.15	 0	    1.00000	    0.00000	 110.0	 19	    1.10000	    0.90000;
	24	 1	 17.22	 5.7	 0.0	 1.22	 0	    1.00000	    0.00000	 110.0	 21	    1.10000	    0.90000;
	25	 2	 0.0	 0.0	 0.0	 0.0	 0	    1.00000	    0.00000	 220.0	 3	    1.10000	    0.90000;
	26	 1	 167.3	 54.8	 0.0	 110.54	 0	    1.00000	    0.00000	 380.0	 5	    1.10000	    0.90000;
	27	 1	 -0.0	 -0.0	 0.0	 14.82	 0	    1.00000	    0.00000	 380.0	 13	    1.10000	    0.90000;
	28	 1	 0.0	 0.0	 0.0	 0.0	 0	    1.00000	    0.00000	 150.0	 9	    1.10000	    0.90000;
	29	 1	 152.9	 49.4	 0.0	 27.65	 0	    1.00000	    0.00000	 380.0	 5	    1.10000	    0.90000;
	30	 1	 -0.0	 0.0	 0.0	 0.56	 0	    1.00000	    0.00000	 150.0	 9	    1.10000	    0.90000;
	31	 1	 69.68	 43.2	 0.0	 6.3	 0	    1.00000	    0.00000	 150.0	 9	    1.30000	    0.70000;
	32	 2	 0.0	 0.0	 0.0	 0.0	 0	    1.00000	    0.00000	 220.0	 4	    1.10000	    0.90000;
	33	 2	 0.0	 0.0	 0.0	 0.0	 0	    1.00000	    0.00000	 220.0	 4	    1.10000	    0.90000;
	34	 1	 13.52	 4.9	 0.0	 1.8	 0	    1.00000	    0.00000	 110.0	 19	    1.10000	    0.90000;
	35	 1	 10.51	 3.5	 0.0	 0.31	 0	    1.00000	    0.00000	 110.0	 12	    1.10000	    0.90000;
	36	 1	 -0.0	 -0.0	 0.12	 15.34	 0	    1.00000	    0.00000	 220.0	 19	    1.10000	    0.90000;
	37	 1	 9.21	 2.6	 0.0	 2.0	 0	    1.00000	    0.00000	 110.0	 18	    1.10000	    0.90000;
	38	 1	 42.75	 12.8	 0.0	 13.3	 0	    1.00000	    0.00000	 220.0	 8	    1.10000	    0.90000;
	39	 2	 0.0	 0.0	 0.0	 0.0	 0	    1.00000	    0.00000	 150.0	 10	    1.10000	    0.90000;
	40	 1	 16.02	 4.54	 0.0	 0.1	 0	    1.00000	    0.00000	 110.0	 23	    1.10000	    0.90000;
	41	 1	 27.9	 4.0	 0.0	 4.23	 0	    1.00000	    0.00000	 154.0	 1	    1.10000	    0.90000;
	42	 1	 20.82	 7.9	 0.0	 26.89	 0	    1.00000	    0.00000	 380.0	 4	    1.10000	    0.90000;
	43	 1	 12.6	 1.8	 0.0	 2.03	 0	    1.00000	    0.00000	 154.0	 1	    1.10000	    0.90000;
	44	 1	 -0.0	 0.0	 0.0	 7.27	 0	    1.00000	    0.00000	 220.0	 5	    1.10000	    0.90000;
	45	 1	 10.11	 3.7	 0.0	 0.81	 0	    1.00000	    0.00000	 110.0	 19	    1.10000	    0.90000;
	46	 1	 10.01	 2.7	 0.0	 1.14	 0	    1.00000	    0.00000	 110.0	 18	    1.10000	    0.90000;
	47	 1	 6.31	 0.0	 0.0	 0.67	 0	    1.00000	    0.00000	 110.0	 18	    1.10000	    0.90000;
	48	 1	 2.9	 0.9	 0.0	 0.6	 0	    1.00000	    0.00000	 110.0	 15	    1.10000	    0.90000;
	49	 2	 0.0	 0.0	 0.0	 0.0	 0	    1.00000	    0.00000	 220.0	 6	    1.10000	    0.90000;
	50	 1	 48.8	 6.9	 0.0	 8.71	 0	    1.00000	    0.00000	 154.0	 1	    1.10000	    0.90000;
	51	 2	 0.0	 0.0	 0.0	 0.0	 0	    1.00000	    0.00000	 220.0	 4	    1.10000	    0.90000;
	52	 1	 127.6	 31.8	 0.0	 20.51	 0	    1.00000	    0.00000	 150.0	 8	    1.10000	    0.90000;
	53	 1	 48.65	 16.1	 0.0	 7.14	 0	    1.00000	    0.00000	 220.0	 5	    1.10000	    0.90000;
	54	 1	 110.5	 -26.8	 0.0	 16.37	 0	    1.00000	    0.00000	 220.0	 6	    1.10000	    0.90000;
	55	 1	 0.0	 -0.0	 0.0	 1.23	 0	    1.00000	    0.00000	 220.0	 3	    1.10000	    0.90000;
	56	 1	 140.0	 79.7	 0.0	 6.5	 0	    1.00000	    0.00000	 220.0	 3	    1.10000	    0.90000;
	57	 1	 21.6	 3.0	 0.0	 3.54	 0	    1.00000	    0.00000	 154.0	 1	    1.10000	    0.90000;
	58	 1	 0.0	 0.0	 0.0	 2.31	 0	    1.00000	    0.00000	 380.0	 5	    1.10000	    0.90000;
	59	 1	 119.2	 20.7	 0.0	 3.31	 0	    1.00000	    0.00000	 220.0	 5	    1.10000	    0.90000;
	60	 1	 0.24	 -1.66	 0.0	 0.65	 0	    1.00000	    0.00000	 110.0	 18	    1.10000	    0.90000;
	61	 1	 -0.0	 0.0	 0.0	 58.57	 0	    1.00000	    0.00000	 380.0	 3	    1.10000	    0.90000;
	62	 1	 -0.0	 0.0	 0.0	 1.34	 0	    1.00000	    0.00000	 110.0	 18	    1.10000	    0.90000;
	63	 1	 187.9	 110.2	 0.0	 21.25	 0	    1.00000	    0.00000	 380.0	 3	    1.10000	    0.90000;
	64	 1	 14.92	 5.5	 0.0	 1.31	 0	    1.00000	    0.00000	 110.0	 15	    1.10000	    0.90000;
	65	 1	 -18.52	 6.1	 0.0	 0.79	 0	    1.00000	    0.00000	 150.0	 9	    1.10000	    0.90000;
	66	 1	 4.61	 1.7	 0.0	 2.32	 0	    1.00000	    0.00000	 110.0	 19	    1.10000	    0.90000;
	67	 1	 0.0	 0.0	 0.099501	 82.133595	 0	    1.00000	    0.00000	 380.0	 18	    1.10000	    0.90000;
	68	 1	 10.81	 5.1	 0.0	 1.09	 0	    1.00000	    0.00000	 110.0	 18	    1.10000	    0.90000;
	69	 1	 62.87	 20.5	 0.0	 1.15	 0	    1.00000	    0.00000	 150.0	 8	    1.10000	    0.90000;
	70	 1	 0.0	 0.0	 0.0	 2.64	 0	    1.00000	    0.00000	 154.0	 1	    1.10000	    0.90000;
	71	 1	 126.3	 42.4	 0.0	 55.24	 0	    1.00000	    0.00000	 150.0	 8	    1.10000	    0.90000;
	72	 1	 6.91	 -4.6	 0.0	 5.75	 0	    1.00000	    0.00000	 220.0	 4	    1.10000	    0.90000;
	73	 1	 15.72	 5.2	 0.0	 0.11	 0	    1.00000	    0.00000	 110.0	 12	    1.10000	    0.90000;
	74	 1	 0.0	 0.0	 0.0	 0.0	 0	    1.00000	    0.00000	 150.0	 9	    1.10000	    0.90000;
	75	 1	 38.74	 6.1	 0.0	 1.17	 0	    1.00000	    0.00000	 220.0	 4	    1.10000	    0.90000;
	76	 1	 22.13	 10.7	 0.0	 14.21	 0	    1.00000	    0.00000	 220.0	 8	    1.10000	    0.90000;
	77	 1	 -0.0	 -0.0	 0.0	 0.73	 0	    1.00000	    0.00000	 220.0	 4	    1.10000	    0.90000;
	78	 1	 0.0	 -0.0	 0.0	 0.83	 0	    1.00000	    0.00000	 110.0	 18	    1.10000	    0.90000;
	79	 1	 138.8	 136.7	 0.0	 8.76	 0	    1.00000	    0.00000	 380.0	 3	    1.10000	    0.90000;
	80	 2	 0.0	 0.0	 0.0	 0.0	 0	    1.00000	    0.00000	 220.0	 23	    1.10000	    0.90000;
	81	 1	 67.76	 19.18	 0.0	 1.47	 0	    1.00000	    0.00000	 150.0	 1	    1.10000	    0.90000;
	82	 1	 22.02	 5.1	 0.0	 0.69	 0	    1.00000	    0.00000	 110.0	 1	    1.10000	    0.90000;
	83	 1	 0.0	 0.0	 0.0	 6.62	 0	    1.00000	    0.00000	 220.0	 3	    1.10000	    0.90000;
	84	 1	 1.0	 0.3	 0.0	 0.19	 0	    1.00000	    0.00000	 110.0	 19	    1.10000	    0.90000;
	85	 1	 20.9	 3.0	 0.0	 5.74	 0	    1.00000	    0.00000	 154.0	 1	    1.10000	    0.90000;
	86	 1	 0.0	 0.0	 0.0	 0.12	 0	    1.00000	    0.00000	 150.0	 9	    1.10000	    0.90000;
	87	 1	 21.52	 5.1	 0.0	 0.5	 0	    1.00000	    0.00000	 110.0	 18	    1.10000	    0.90000;
	88	 1	 71.98	 28.8	 0.0	 11.0	 0	    1.00000	    0.00000	 220.0	 6	    1.10000	    0.90000;
	89	 1	 0.0	 0.0	 0.199111	 4.530599	 0	    1.00000	    0.00000	 380.0	 2	    1.10000	    0.90000;
	90	 1	 363.25	 115.39	 0.0	 3.95	 0	    1.00000	    0.00000	 220.0	 5	    1.10000	    0.90000;
	91	 1	 -0.0	 0.0	 0.0	 0.02	 0	    1.00000	    0.00000	 150.0	 8	    1.10000	    0.90000;
	92	 1	 192.9	 73.3	 0.0	 20.75	 0	    1.00000	    0.00000	 380.0	 3	    1.10000	    0.90000;
	93	 1	 17.52	 6.3	 0.0	 0.26	 0	    1.00000	    0.00000	 110.0	 19	    1.10000	    0.90000;
	94	 1	 33.14	 12.0	 0.0	 0.65	 0	    1.00000	    0.00000	 110.0	 19	    1.10000	    0.90000;
	95	 1	 40.45	 25.0	 0.0	 9.82	 0	    1.00000	    0.00000	 150.0	 9	    1.10000	    0.90000;
	96	 1	 193.17	 53.37	 0.0	 4.58	 0	    1.00000	    0.00000	 220.0	 5	    1.10000	    0.90000;
	97	 1	 0.0	 0.0	 0.0	 9.38	 0	    1.00000	    0.00000	 380.0	 1	    1.10000	    0.90000;
	98	 1	 90.7	 25.5	 0.0	 3.11	 0	    1.00000	    0.00000	 220.0	 3	    1.10000	    0.90000;
	99	 1	 176.3	 -58.9	 0.0	 24.77	 0	    1.00000	    0.00000	 380.0	 6	    1.10000	    0.90000;
	100	 1	 35.94	 22.3	 0.0	 0.0	 0	    1.00000	    0.00000	 150.0	 9	    1.10000	    0.90000;
	101	 1	 -0.0	 0.0	 0.0	 0.29	 0	    1.00000	    0.00000	 150.0	 9	    1.10000	    0.90000;
	102	 1	 0.0	 -0.0	 0.0	 3.77	 0	    1.00000	    0.00000	 220.0	 6	    1.10000	    0.90000;
	103	 1	 65.07	 40.3	 0.0	 5.43	 0	    1.00000	    0.00000	 150.0	 9	    1.10000	    0.90000;
	104	 1	 51.36	 -8.8	 0.0	 2.15	 0	    1.00000	    0.00000	 220.0	 6	    1.10000	    0.90000;
	105	 1	 -0.0	 -0.0	 0.0	 82.55	 0	    1.00000	    0.00000	 380.0	 6	    1.10000	    0.90000;
	106	 1	 0.0	 -0.0	 0.0	 31.19	 0	    1.00000	    0.00000	 380.0	 23	    1.30000	    0.70000;
	107	 2	 0.0	 0.0	 0.0	 0.0	 0	    1.00000	    0.00000	 380.0	 3	    1.30000	    0.70000;
	108	 1	 3.8	 1.3	 0.0	 0.4	 0	    1.00000	    0.00000	 110.0	 18	    1.10000	    0.90000;
	109	 1	 137.0	 19.5	 0.0	 4.9	 0	    1.00000	    0.00000	 154.0	 1	    1.10000	    0.90000;
	110	 1	 0.0	 0.0	 0.0	 0.0	 0	    1.00000	    0.00000	 150.0	 9	    1.10000	    0.90000;
	111	 1	 61.07	 36.0	 0.0	 3.09	 0	    1.00000	    0.00000	 220.0	 11	    1.10000	    0.90000;
	112	 1	 0.0	 0.0	 0.0	 3.24	 0	    1.00000	    0.00000	 220.0	 3	    1.10000	    0.90000;
	113	 1	 -0.0	 -0.0	 0.0	 6.532711	 0	    1.00000	    0.00000	 380.0	 5	    1.10000	    0.90000;
	114	 1	 55.7	 7.9	 0.0	 4.21	 0	    1.00000	    0.00000	 154.0	 1	    1.10000	    0.90000;
	115	 1	 0.0	 -0.0	 0.0	 4.21	 0	    1.00000	    0.00000	 220.0	 5	    1.10000	    0.90000;
	116	 1	 1.8	 0.7	 0.0	 0.3	 0	    1.00000	    0.00000	 110.0	 19	    1.10000	    0.90000;
	117	 1	 40.04	 16.0	 0.0	 0.52	 0	    1.00000	    0.00000	 110.0	 18	    1.10000	    0.90000;
	118	 1	 -0.0	 0.0	 0.0	 36.562834	 0	    1.00000	    0.00000	 380.0	 5	    1.10000	    0.90000;
	119	 1	 0.0	 0.0	 0.0	 0.09	 0	    1.00000	    0.00000	 150.0	 9	    1.10000	    0.90000;
	120	 1	 140.6	 20.1	 0.0	 13.81	 0	    1.00000	    0.00000	 154.0	 1	    1.10000	    0.90000;
	121	 1	 45.15	 14.1	 0.0	 0.19	 0	    1.00000	    0.00000	 110.0	 15	    1.10000	    0.90000;
	122	 1	 -0.0	 0.0	 0.0	 5.75	 0	    1.00000	    0.00000	 220.0	 3	    1.10000	    0.90000;
	123	 2	 0.0	 0.0	 0.0	 0.0	 0	    1.00000	    0.00000	 220.0	 11	    1.10000	    0.90000;
	124	 2	 0.0	 0.0	 0.0	 0.0	 0	    1.00000	    0.00000	 220.0	 5	    1.10000	    0.90000;
	125	 1	 3.42	 2.68	 0.0	 1.46	 0	    1.00000	    0.00000	 110.0	 18	    1.10000	    0.90000;
	126	 1	 0.0	 -0.0	 0.0	 2.64	 0	    1.00000	    0.00000	 154.0	 1	    1.10000	    0.90000;
	127	 1	 -0.0	 -0.0	 0.0	 4.3	 0	    1.00000	    0.00000	 220.0	 6	    1.10000	    0.90000;
	128	 1	 23.73	 12.7	 0.0	 0.52	 0	    1.00000	    0.00000	 220.0	 5	    1.10000	    0.90000;
	129	 1	 121.9	 7.4	 0.0	 1.34	 0	    1.00000	    0.00000	 220.0	 3	    1.10000	    0.90000;
	130	 1	 -0.0	 0.0	 0.135375	 47.750675	 0	    1.00000	    0.00000	 380.0	 10	    1.10000	    0.90000;
	131	 1	 47.35	 16.4	 0.0	 4.08	 0	    1.00000	    0.00000	 110.0	 22	    1.10000	    0.90000;
	132	 1	 0.0	 -0.0	 0.0	 21.39	 0	    1.00000	    0.00000	 380.0	 1	    1.10000	    0.90000;
	133	 1	 38.14	 12.5	 0.0	 6.28	 0	    1.00000	    0.00000	 150.0	 8	    1.10000	    0.90000;
	134	 1	 54.2	 7.8	 0.0	 94.9	 0	    1.00000	    0.00000	 400.0	 1	    1.10000	    0.90000;
	135	 1	 130.6	 84.9	 0.0	 4.22	 0	    1.00000	    0.00000	 220.0	 7	    1.10000	    0.90000;
	136	 1	 7.91	 2.6	 0.0	 0.74	 0	    1.00000	    0.00000	 110.0	 12	    1.10000	    0.90000;
	137	 1	 42.1	 74.61	 0.0	 37.58	 0	    1.00000	    0.00000	 150.0	 1	    1.10000	    0.90000;
	138	 1	 -75.38	 7.8	 0.0	 29.9	 0	    1.00000	    0.00000	 380.0	 10	    1.10000	    0.90000;
	139	 1	 -0.0	 -0.0	 0.0	 36.92	 0	    1.00000	    0.00000	 380.0	 8	    1.10000	    0.90000;
	140	 1	 0.0	 0.0	 0.0	 4.14	 0	    1.00000	    0.00000	 220.0	 8	    1.10000	    0.90000;
	141	 2	 0.0	 0.0	 0.0	 0.0	 0	    1.00000	    0.00000	 220.0	 13	    1.10000	    0.90000;
	142	 2	 0.0	 0.0	 0.0	 0.0	 0	    1.00000	    0.00000	 220.0	 6	    1.10000	    0.90000;
	143	 1	 0.0	 0.0	 0.0	 0.0	 0	    1.00000	    0.00000	 150.0	 8	    1.10000	    0.90000;
	144	 1	 0.0	 0.0	 0.0	 98.53	 0	    1.00000	    0.00000	 380.0	 14	    1.10000	    0.90000;
	145	 1	 38.34	 5.6	 0.0	 7.64	 0	    1.00000	    0.00000	 220.0	 5	    1.10000	    0.90000;
	146	 1	 269.6	 65.7	 0.0	 0.0	 0	    1.00000	    0.00000	 120.0	 20	    1.30000	    0.70000;
	147	 2	 0.0	 0.0	 0.0	 0.0	 0	    1.00000	    0.00000	 220.0	 7	    1.10000	    0.90000;
	148	 1	 32.34	 12.0	 0.0	 6.1	 0	    1.00000	    0.00000	 220.0	 5	    1.10000	    0.90000;
	149	 1	 100.1	 45.1	 0.0	 1.11	 0	    1.00000	    0.00000	 380.0	 6	    1.10000	    0.90000;
	150	 2	 0.0	 0.0	 0.0	 0.0	 0	    1.00000	    0.00000	 220.0	 5	    1.10000	    0.90000;
	151	 2	 0.0	 0.0	 0.0	 0.0	 0	    1.00000	    0.00000	 154.0	 1	    1.10000	    0.90000;
	152	 1	 7.0	 1.0	 0.0	 4.69	 0	    1.00000	    0.00000	 154.0	 1	    1.10000	    0.90000;
	153	 1	 -0.0	 0.0	 0.0	 0.56	 0	    1.00000	    0.00000	 150.0	 7	    1.10000	    0.90000;
	154	 1	 0.0	 0.0	 0.0	 1.29	 0	    1.00000	    0.00000	 110.0	 12	    1.10000	    0.90000;
	155	 1	 -0.0	 -0.0	 0.0	 1.7	 0	    1.00000	    0.00000	 110.0	 21	    1.10000	    0.90000;
	156	 1	 40.34	 25.0	 0.0	 1.14	 0	    1.00000	    0.00000	 150.0	 9	    1.10000	    0.90000;
	157	 1	 9.21	 3.3	 0.0	 1.2	 0	    1.00000	    0.00000	 110.0	 19	    1.10000	    0.90000;
	158	 1	 166.0	 60.3	 0.0	 0.57	 0	    1.00000	    0.00000	 220.0	 3	    1.10000	    0.90000;
	159	 1	 0.0	 -0.0	 0.0	 0.1	 0	    1.00000	    0.00000	 150.0	 9	    1.10000	    0.90000;
	160	 1	 79.4	 11.3	 0.0	 4.92	 0	    1.00000	    0.00000	 154.0	 1	    1.10000	    0.90000;
	161	 1	 -0.0	 -0.0	 0.0	 0.16	 0	    1.00000	    0.00000	 150.0	 9	    1.10000	    0.90000;
	162	 1	 0.0	 0.0	 0.0	 66.65	 0	    1.00000	    0.00000	 380.0	 6	    1.10000	    0.90000;
	163	 1	 147.76	 32.73	 0.0	 8.34	 0	    1.00000	    0.00000	 220.0	 5	    1.10000	    0.90000;
	164	 1	 0.0	 -0.0	 0.0	 5.17	 0	    1.00000	    0.00000	 150.0	 8	    1.10000	    0.90000;
	165	 1	 26.8	 -3.7	 0.0	 51.261678	 0	    1.00000	    0.00000	 380.0	 9	    1.10000	    0.90000;
	166	 2	 0.0	 0.0	 0.0	 0.0	 0	    1.00000	    0.00000	 220.0	 3	    1.10000	    0.90000;
	167	 1	 257.5	 131.1	 0.0	 1.08	 0	    1.00000	    0.00000	 220.0	 3	    1.10000	    0.90000;
	168	 1	 16.7	 2.4	 0.0	 6.09	 0	    1.00000	    0.00000	 154.0	 1	    1.10000	    0.90000;
	169	 1	 0.0	 0.0	 0.0	 1.91	 0	    1.00000	    0.00000	 150.0	 9	    1.10000	    0.90000;
	170	 1	 -0.0	 -0.0	 0.0	 2.35	 0	    1.00000	    0.00000	 220.0	 1	    1.10000	    0.90000;
	171	 1	 100.8	 13.2	 0.0	 5.24	 0	    1.00000	    0.00000	 220.0	 5	    1.10000	    0.90000;
	172	 1	 111.7	 10.96	 0.0	 4.22	 0	    1.00000	    0.00000	 220.0	 4	    1.10000	    0.90000;
	173	 1	 90.38	 -5.05	 0.0	 8.49	 0	    1.00000	    0.00000	 220.0	 13	    1.10000	    0.90000;
	174	 1	 370.5	 -17.0	 0.0	 9.91	 0	    1.00000	    0.00000	 220.0	 5	    1.10000	    0.90000;
	175	 1	 9.91	 3.2	 0.0	 0.67	 0	    1.00000	    0.00000	 110.0	 12	    1.10000	    0.90000;
	176	 1	 -0.69	 -5.46	 0.0	 5.07	 0	    1.00000	    0.00000	 150.0	 9	    1.10000	    0.90000;
	177	 1	 94.9	 36.2	 0.0	 16.46	 0	    1.00000	    0.00000	 220.0	 10	    1.10000	    0.90000;
	178	 1	 81.09	 48.0	 0.0	 0.03	 0	    1.00000	    0.00000	 150.0	 9	    1.10000	    0.90000;
	179	 2	 0.0	 0.0	 0.0	 0.0	 0	    1.00000	    0.00000	 380.0	 4	    1.10000	    0.90000;
	180	 1	 0.0	 0.0	 0.0	 0.54	 0	    1.00000	    0.00000	 110.0	 21	    1.10000	    0.90000;
	181	 1	 54.96	 16.9	 0.0	 3.37	 0	    1.00000	    0.00000	 110.0	 22	    1.10000	    0.90000;
	182	 1	 19.32	 26.0	 0.0	 0.69	 0	    1.00000	    0.00000	 220.0	 3	    1.10000	    0.90000;
	183	 1	 0.0	 0.0	 0.0	 1.83	 0	    1.00000	    0.00000	 150.0	 9	    1.10000	    0.90000;
	184	 1	 -0.0	 -0.0	 0.0	 2.42	 0	    1.00000	    0.00000	 220.0	 5	    1.10000	    0.90000;
	185	 1	 20.9	 3.0	 0.0	 4.11	 0	    1.00000	    0.00000	 154.0	 1	    1.10000	    0.90000;
	186	 1	 19.92	 6.6	 0.0	 0.56	 0	    1.00000	    0.00000	 110.0	 21	    1.10000	    0.90000;
	187	 1	 57.16	 2.0	 0.0	 1.48	 0	    1.00000	    0.00000	 110.0	 22	    1.10000	    0.90000;
	188	 1	 36.84	 13.9	 0.0	 3.3	 0	    1.00000	    0.00000	 220.0	 5	    1.10000	    0.90000;
	189	 1	 -15.04	 -5.12	 0.0	 0.43	 0	    1.00000	    0.00000	 110.0	 18	    1.10000	    0.90000;
	190	 2	 0.0	 0.0	 0.0	 0.0	 0	    1.00000	    0.00000	 110.0	 19	    1.10000	    0.90000;
	191	 1	 0.0	 -0.0	 0.0	 14.19	 0	    1.00000	    0.00000	 220.0	 6	    1.10000	    0.90000;
	192	 2	 0.0	 0.0	 0.0	 0.0	 0	    1.00000	    0.00000	 380.0	 3	    1.10000	    0.90000;
	193	 1	 119.9	 3.7	 0.0	 3.33	 0	    1.00000	    0.00000	 220.0	 3	    1.10000	    0.90000;
	194	 2	 0.0	 0.0	 0.0	 0.0	 0	    1.00000	    0.00000	 150.0	 8	    1.10000	    0.90000;
	195	 1	 73.14	 21.55	 0.0	 8.52	 0	    1.00000	    0.00000	 220.0	 5	    1.10000	    0.90000;
	196	 1	 0.0	 -0.0	 0.0	 12.48	 0	    1.00000	    0.00000	 220.0	 5	    1.10000	    0.90000;
	197	 2	 0.0	 0.0	 0.0	 0.0	 0	    1.00000	    0.00000	 380.0	 3	    1.10000	    0.90000;
	198	 1	 39.74	 11.8	 0.0	 1.44	 0	    1.00000	    0.00000	 220.0	 5	    1.10000	    0.90000;
	199	 1	 86.8	 28.4	 0.0	 1.34	 0	    1.00000	    0.00000	 150.0	 8	    1.10000	    0.90000;
	200	 1	 22.42	 2.1	 0.0	 0.19	 0	    1.00000	    0.00000	 150.0	 1	    1.10000	    0.90000;
...
];

%% generator data
%	bus	Pg	Qg	Qmax	Qmin	Vg	mBase	status	Pmax	Pmin	Pc1	Pc2	Qc1min	Qc1max	Qc2min	Qc2max	ramp_agc	ramp_10	ramp_30	ramp_q	apf
mpc.gen = [
	2	 -4.265	 10.87	 42.19	 -20.45	 1.031734	 100.0	 1	 100.0	 -108.53	 0.0	 0.0	 0.0	 0.0	 0.0	 0.0	 0.0	 0.0	 0.0	 0.0	 0.0; % NG
	6	 800.0	 156.48	 524.53	 -211.57	 1.038476	 100.0	 1	 1200.0	 400.0	 0.0	 0.0	 0.0	 0.0	 0.0	 0.0	 0.0	 0.0	 0.0	 0.0	 0.0; % COW
	8	 262.34	 2.74	 251.73	 -246.25	 1.023005	 100.0	 1	 524.68	 0.0	 0.0	 0.0	 0.0	 0.0	 0.0	 0.0	 0.0	 0.0	 0.0	 0.0	 0.0; % COW
	18	 333.335	 59.745	 212.97	 -93.48	 1.026728	 100.0	 1	 500.0	 166.67	 0.0	 0.0	 0.0	 0.0	 0.0	 0.0	 0.0	 0.0	 0.0	 0.0	 0.0; % NG
	25	 200.0	 56.61	 179.43	 -66.21	 1.028526	 100.0	 1	 400.0	 0.0	 0.0	 0.0	 0.0	 0.0	 0.0	 0.0	 0.0	 0.0	 0.0	 0.0	 0.0; % COW
	32	 8.1	 0.675	 5.91	 -4.56	 1.003223	 100.0	 1	 16.2	 0.0	 0.0	 0.0	 0.0	 0.0	 0.0	 0.0	 0.0	 0.0	 0.0	 0.0	 0.0; % PEL
	33	 2.69	 0.595	 2.27	 -1.08	 1.026534	 100.0	 1	 5.38	 0.0	 0.0	 0.0	 0.0	 0.0	 0.0	 0.0	 0.0	 0.0	 0.0	 0.0	 0.0; % NG
	39	 20.0	 5.31	 17.76	 -7.14	 1.003511	 100.0	 1	 40.0	 0.0	 0.0	 0.0	 0.0	 0.0	 0.0	 0.0	 0.0	 0.0	 0.0	 0.0	 0.0; % PEL
	49	 240.0	 71.275	 218.52	 -75.97	 1.020323	 100.0	 1	 480.0	 0.0	 0.0	 0.0	 0.0	 0.0	 0.0	 0.0	 0.0	 0.0	 0.0	 0.0	 0.0; % NG
	51	 -46.335	 0.645	 5.48	 -4.19	 1.006665	 100.0	 1	 100.0	 -192.67	 0.0	 0.0	 0.0	 0.0	 0.0	 0.0	 0.0	 0.0	 0.0	 0.0	 0.0; % COW
	80	 64.4	 48.08	 139.94	 -43.78	 1.068393	 100.0	 1	 100.0	 28.8	 0.0	 0.0	 0.0	 0.0	 0.0	 0.0	 0.0	 0.0	 0.0	 0.0	 0.0; % COW
	107	 400.0	 70.03	 253.85	 -113.79	 1.083135	 100.0	 1	 600.0	 200.0	 0.0	 0.0	 0.0	 0.0	 0.0	 0.0	 0.0	 0.0	 0.0	 0.0	 0.0; % COW
	123	 20.0	 6.39	 18.84	 -6.06	 1.041503	 100.0	 1	 40.0	 0.0	 0.0	 0.0	 0.0	 0.0	 0.0	 0.0	 0.0	 0.0	 0.0	 0.0	 0.0; % COW
	124	 666.665	 133.865	 440.32	 -172.59	 1.077112	 100.0	 1	 1000.0	 333.33	 0.0	 0.0	 0.0	 0.0	 0.0	 0.0	 0.0	 0.0	 0.0	 0.0	 0.0; % COW
	141	 1.2	 6.13	 18.59	 -6.33	 1.050716	 100.0	 1	 100.0	 -97.6	 0.0	 0.0	 0.0	 0.0	 0.0	 0.0	 0.0	 0.0	 0.0	 0.0	 0.0; % NG
	142	 90.0	 22.875	 78.15	 -32.4	 1.042299	 100.0	 1	 180.0	 0.0	 0.0	 0.0	 0.0	 0.0	 0.0	 0.0	 0.0	 0.0	 0.0	 0.0	 0.0; % COW
	147	 39.335	 20.31	 70.12	 -29.5	 1.058041	 100.0	 1	 100.0	 -21.33	 0.0	 0.0	 0.0	 0.0	 0.0	 0.0	 0.0	 0.0	 0.0	 0.0	 0.0; % COW
	150	 80.0	 27.275	 77.09	 -22.54	 1.062129	 100.0	 1	 160.0	 0.0	 0.0	 0.0	 0.0	 0.0	 0.0	 0.0	 0.0	 0.0	 0.0	 0.0	 0.0; % NG
	151	 -23.565	 -10.105	 37.97	 -58.18	 1.013748	 100.0	 1	 100.0	 -147.13	 0.0	 0.0	 0.0	 0.0	 0.0	 0.0	 0.0	 0.0	 0.0	 0.0	 0.0; % COW
	166	 150.0	 35.57	 127.67	 -56.53	 1.040747	 100.0	 1	 300.0	 0.0	 0.0	 0.0	 0.0	 0.0	 0.0	 0.0	 0.0	 0.0	 0.0	 0.0	 0.0; % NG
	179	 -69.465	 0.46	 52.64	 -51.72	 1.043661	 100.0	 1	 100.0	 -238.93	 0.0	 0.0	 0.0	 0.0	 0.0	 0.0	 0.0	 0.0	 0.0	 0.0	 0.0; % NG
	190	 60.0	 16.805	 54.24	 -20.63	 1.025544	 100.0	 1	 120.0	 0.0	 0.0	 0.0	 0.0	 0.0	 0.0	 0.0	 0.0	 0.0	 0.0	 0.0	 0.0; % NG
	192	 100.0	 30.315	 91.61	 -30.98	 1.048355	 100.0	 1	 200.0	 0.0	 0.0	 0.0	 0.0	 0.0	 0.0	 0.0	 0.0	 0.0	 0.0	 0.0	 0.0; % NG
	194	 200.0	 38.33	 130.19	 -53.53	 1.02931	 100.0	 1	 300.0	 100.0	 0.0	 0.0	 0.0	 0.0	 0.0	 0.0	 0.0	 0.0	 0.0	 0.0	 0.0; % NG
	197	 150.0	 32.175	 123.89	 -59.54	 1.099985	 100.0	 1	 300.0	 0.0	 0.0	 0.0	 0.0	 0.0	 0.0	 0.0	 0.0	 0.0	 0.0	 0.0	 0.0; % COW
	201	 2.685	 0.6	 2.27	 -1.07	 1.01914	 100.0	 1	 5.37	 0.0	 0.0	 0.0	 0.0	 0.0	 0.0	 0.0	 0.0	 0.0	 0.0	 0.0	 0.0; % NG
	209	 20.0	 6.265	 18.7	 -6.17	 1.026832	 100.0	 1	 40.0	 0.0	 0.0	 0.0	 0.0	 0.0	 0.0	 0.0	 0.0	 0.0	 0.0	 0.0	 0.0; % PEL
	214	 -66.8	 69.555	 192.0	 -52.89	 1.079765	 100.0	 1	 100.0	 -233.6	 0.0	 0.0	 0.0	 0.0	 0.0	 0.0	 0.0	 0.0	 0.0	 0.0	 0.0; % NG
	219	 1333.335	 324.635	 937.43	 -288.16	 1.056623	 100.0	 1	 2000.0	 666.67	 0.0	 0.0	 0.0	 0.0	 0.0	 0.0	 0.0	 0.0	 0.0	 0.0	 0.0; % COW
	220	 600.0	 127.985	 402.92	 -146.95	 1.047116	 100.0	 1	 900.0	 300.0	 0.0	 0.0	 0.0	 0.0	 0.0	 0.0	 0.0	 0.0	 0.0	 0.0	 0.0; % COW
	221	 266.665	 59.31	 183.92	 -65.3	 1.030636	 100.0	 1	 400.0	 133.33	 0.0	 0.0	 0.0	 0.0	 0.0	 0.0	 0.0	 0.0	 0.0	 0.0	 0.0; % NG
	222	 -48.2	 3.445	 12.51	 -5.62	 1.030494	 100.0	 1	 100.0	 -196.4	 0.0	 0.0	 0.0	 0.0	 0.0	 0.0	 0.0	 0.0	 0.0	 0.0	 0.0; % COW
	239	 45.3	 13.64	 38.52	 -11.24	 1.018711	 100.0	 1	 100.0	 -9.4	 0.0	 0.0	 0.0	 0.0	 0.0	 0.0	 0.0	 0.0	 0.0	 0.0	 0.0; % NG
	246	 533.335	 132.745	 378.08	 -112.59	 1.06685	 100.0	 1	 800.0	 266.67	 0.0	 0.0	 0.0	 0.0	 0.0	 0.0	 0.0	 0.0	 0.0	 0.0	 0.0; % COW
	248	 -64.665	 12.56	 37.47	 -12.35	 1.043991	 100.0	 1	 100.0	 -229.33	 0.0	 0.0	 0.0	 0.0	 0.0	 0.0	 0.0	 0.0	 0.0	 0.0	 0.0; % COW
	255	 333.335	 67.385	 220.66	 -85.89	 1.059597	 100.0	 1	 500.0	 166.67	 0.0	 0.0	 0.0	 0.0	 0.0	 0.0	 0.0	 0.0	 0.0	 0.0	 0.0; % NG
	262	 -26.935	 13.19	 38.1	 -11.72	 1.033795	 100.0	 1	 100.0	 -153.87	 0.0	 0.0	 0.0	 0.0	 0.0	 0.0	 0.0	 0.0	 0.0	 0.0	 0.0; % NG
	263	 27.065	 -0.95	 5.05	 -6.95	 1.028681	 100.0	 1	 100.0	 -45.87	 0.0	 0.0	 0.0	 0.0	 0.0	 0.0	 0.0	 0.0	 0.0	 0.0	 0.0; % NG
	278	 7.265	 12.805	 37.7	 -12.09	 1.014153	 100.0	 1	 100.0	 -85.47	 0.0	 0.0	 0.0	 0.0	 0.0	 0.0	 0.0	 0.0	 0.0	 0.0	 0.0; % NG
	282	 1333.335	 312.145	 924.64	 -300.35	 1.077605	 100.0	 1	 2000.0	 666.67	 0.0	 0.0	 0.0	 0.0	 0.0	 0.0	 0.0	 0.0	 0.0	 0.0	 0.0; % COW
	289	 30.0	 7.605	 26.02	 -10.81	 1.046783	 100.0	 1	 60.0	 0.0	 0.0	 0.0	 0.0	 0.0	 0.0	 0.0	 0.0	 0.0	 0.0	 0.0	 0.0; % PEL
	294	 320.0	 11.89	 45.1	 -21.32	 1.003375	 100.0	 1	 480.0	 160.0	 0.0	 0.0	 0.0	 0.0	 0.0	 0.0	 0.0	 0.0	 0.0	 0.0	 0.0; % NG
	299	 1066.665	 231.27	 721.25	 -258.71	 1.039248	 100.0	 1	 1600.0	 533.33	 0.0	 0.0	 0.0	 0.0	 0.0	 0.0	 0.0	 0.0	 0.0	 0.0	 0.0; % COW
	309	 50.0	 11.95	 42.62	 -18.72	 0.989085	 100.0	 1	 100.0	 0.0	 0.0	 0.0	 0.0	 0.0	 0.0	 0.0	 0.0	 0.0	 0.0	 0.0	 0.0; % NG
	310	 450.0	 0.0	 99999.0	 -99999.0	 1.155322	 100.0	 1	 700.0	 200.0	 0.0	 0.0	 0.0	 0.0	 0.0	 0.0	 0.0	 0.0	 0.0	 0.0	 0.0; % COW
	313	 5.04	 -1.17	 4.83	 -7.17	 1.025259	 100.0	 1	 10.08	 0.0	 0.0	 0.0	 0.0	 0.0	 0.0	 0.0	 0.0	 0.0	 0.0	 0.0	 0.0; % NG
	320	 1208.0	 -261.96	 320.04	 -843.96	 1.013336	 100.0	 1	 1812.0	 604.0	 0.0	 0.0	 0.0	 0.0	 0.0	 0.0	 0.0	 0.0	 0.0	 0.0	 0.0; % NUC
	324	 100.0	 34.015	 95.32	 -27.29	 1.063285	 100.0	 1	 200.0	 0.0	 0.0	 0.0	 0.0	 0.0	 0.0	 0.0	 0.0	 0.0	 0.0	 0.0	 0.0; % NG
	325	 35.735	 0.46	 1.93	 -1.01	 1.009625	 100.0	 1	 100.0	 -28.53	 0.0	 0.0	 0.0	 0.0	 0.0	 0.0	 0.0	 0.0	 0.0	 0.0	 0.0; % NG
	328	 -1.935	 66.385	 188.91	 -56.14	 1.017618	 100.0	 1	 100.0	 -103.87	 0.0	 0.0	 0.0	 0.0	 0.0	 0.0	 0.0	 0.0	 0.0	 0.0	 0.0; % NG
	338	 60.0	 18.19	 55.54	 -19.16	 1.046957	 100.0	 1	 120.0	 0.0	 0.0	 0.0	 0.0	 0.0	 0.0	 0.0	 0.0	 0.0	 0.0	 0.0	 0.0; % NG
	347	 26.71	 -4.67	 33.33	 -42.67	 1.020949	 100.0	 1	 53.42	 0.0	 0.0	 0.0	 0.0	 0.0	 0.0	 0.0	 0.0	 0.0	 0.0	 0.0	 0.0; % NG
	348	 120.0	 36.835	 110.57	 -36.9	 1.057894	 100.0	 1	 240.0	 0.0	 0.0	 0.0	 0.0	 0.0	 0.0	 0.0	 0.0	 0.0	 0.0	 0.0	 0.0; % NG
	352	 1333.335	 314.335	 926.35	 -297.68	 1.048835	 100.0	 1	 2000.0	 666.67	 0.0	 0.0	 0.0	 0.0	 0.0	 0.0	 0.0	 0.0	 0.0	 0.0	 0.0; % NG
	361	 266.665	 63.945	 186.39	 -58.5	 1.05949	 100.0	 1	 400.0	 133.33	 0.0	 0.0	 0.0	 0.0	 0.0	 0.0	 0.0	 0.0	 0.0	 0.0	 0.0; % NG
	366	 130.665	 -29.15	 61.97	 -120.27	 1.008853	 100.0	 1	 196.0	 65.33	 0.0	 0.0	 0.0	 0.0	 0.0	 0.0	 0.0	 0.0	 0.0	 0.0	 0.0; % NG
	372	 13.4	 99.325	 282.95	 -84.3	 1.074991	 100.0	 1	 100.0	 -73.2	 0.0	 0.0	 0.0	 0.0	 0.0	 0.0	 0.0	 0.0	 0.0	 0.0	 0.0; % NG
	382	 40.0	 13.48	 38.4	 -11.44	 1.060853	 100.0	 1	 80.0	 0.0	 0.0	 0.0	 0.0	 0.0	 0.0	 0.0	 0.0	 0.0	 0.0	 0.0	 0.0; % NG
	389	 60.0	 19.445	 56.73	 -17.84	 1.017731	 100.0	 1	 120.0	 0.0	 0.0	 0.0	 0.0	 0.0	 0.0	 0.0	 0.0	 0.0	 0.0	 0.0	 0.0; % COW
	394	 1866.665	 367.045	 1224.26	 -490.17	 1.063147	 100.0	 1	 2800.0	 933.33	 0.0	 0.0	 0.0	 0.0	 0.0	 0.0	 0.0	 0.0	 0.0	 0.0	 0.0; % NG
	406	 30.615	 2.435	 22.22	 -17.35	 1.012399	 100.0	 1	 61.23	 0.0	 0.0	 0.0	 0.0	 0.0	 0.0	 0.0	 0.0	 0.0	 0.0	 0.0	 0.0; % NG
	409	 8.665	 -2.675	 24.32	 -29.67	 1.032831	 100.0	 1	 100.0	 -82.67	 0.0	 0.0	 0.0	 0.0	 0.0	 0.0	 0.0	 0.0	 0.0	 0.0	 0.0; % COW
	411	 20.0	 5.195	 17.66	 -7.27	 1.03248	 100.0	 1	 40.0	 0.0	 0.0	 0.0	 0.0	 0.0	 0.0	 0.0	 0.0	 0.0	 0.0	 0.0	 0.0; % PEL
	413	 140.0	 37.14	 124.12	 -49.84	 1.048421	 100.0	 1	 280.0	 0.0	 0.0	 0.0	 0.0	 0.0	 0.0	 0.0	 0.0	 0.0	 0.0	 0.0	 0.0; % COW
	423	 37.2	 1.31	 5.22	 -2.6	 1.030299	 100.0	 1	 100.0	 -25.6	 0.0	 0.0	 0.0	 0.0	 0.0	 0.0	 0.0	 0.0	 0.0	 0.0	 0.0; % NG
	424	 466.665	 89.45	 304.38	 -125.48	 1.051241	 100.0	 1	 700.0	 233.33	 0.0	 0.0	 0.0	 0.0	 0.0	 0.0	 0.0	 0.0	 0.0	 0.0	 0.0; % COW
	433	 333.335	 63.98	 217.18	 -89.22	 1.024885	 100.0	 1	 500.0	 166.67	 0.0	 0.0	 0.0	 0.0	 0.0	 0.0	 0.0	 0.0	 0.0	 0.0	 0.0; % COW
	434	 48.135	 -0.25	 2.75	 -3.25	 1.037999	 100.0	 1	 100.0	 -3.73	 0.0	 0.0	 0.0	 0.0	 0.0	 0.0	 0.0	 0.0	 0.0	 0.0	 0.0; % NG
	438	 50.0	 14.46	 45.1	 -16.18	 1.038705	 100.0	 1	 100.0	 0.0	 0.0	 0.0	 0.0	 0.0	 0.0	 0.0	 0.0	 0.0	 0.0	 0.0	 0.0; % NG
	439	 200.0	 52.975	 175.16	 -69.21	 1.072491	 100.0	 1	 400.0	 0.0	 0.0	 0.0	 0.0	 0.0	 0.0	 0.0	 0.0	 0.0	 0.0	 0.0	 0.0; % NG
	440	 60.0	 18.36	 55.73	 -19.01	 1.028093	 100.0	 1	 120.0	 0.0	 0.0	 0.0	 0.0	 0.0	 0.0	 0.0	 0.0	 0.0	 0.0	 0.0	 0.0; % NG
	442	 23.1	 0.51	 1.95	 -0.93	 1.011727	 100.0	 1	 100.0	 -53.8	 0.0	 0.0	 0.0	 0.0	 0.0	 0.0	 0.0	 0.0	 0.0	 0.0	 0.0; % NG
	447	 20.0	 4.4	 16.84	 -8.04	 1.035215	 100.0	 1	 40.0	 0.0	 0.0	 0.0	 0.0	 0.0	 0.0	 0.0	 0.0	 0.0	 0.0	 0.0	 0.0; % NG
	452	 12.135	 12.96	 37.86	 -11.94	 1.013382	 100.0	 1	 100.0	 -75.73	 0.0	 0.0	 0.0	 0.0	 0.0	 0.0	 0.0	 0.0	 0.0	 0.0	 0.0; % NG
	453	 270.0	 91.415	 257.23	 -74.4	 1.024712	 100.0	 1	 540.0	 0.0	 0.0	 0.0	 0.0	 0.0	 0.0	 0.0	 0.0	 0.0	 0.0	 0.0	 0.0; % NG
	456	 31.28	 2.495	 44.8	 -39.81	 0.999847	 100.0	 1	 100.0	 -37.44	 0.0	 0.0	 0.0	 0.0	 0.0	 0.0	 0.0	 0.0	 0.0	 0.0	 0.0; % NG
	484	 150.0	 40.78	 132.41	 -50.85	 1.054091	 100.0	 1	 300.0	 0.0	 0.0	 0.0	 0.0	 0.0	 0.0	 0.0	 0.0	 0.0	 0.0	 0.0	 0.0; % COW
	489	 -21.6	 0.73	 6.28	 -4.82	 1.008032	 100.0	 1	 100.0	 -143.2	 0.0	 0.0	 0.0	 0.0	 0.0	 0.0	 0.0	 0.0	 0.0	 0.0	 0.0; % NG
	491	 100.0	 33.23	 94.56	 -28.1	 1.033193	 100.0	 1	 200.0	 0.0	 0.0	 0.0	 0.0	 0.0	 0.0	 0.0	 0.0	 0.0	 0.0	 0.0	 0.0; % NG
	505	 58.015	 -10.495	 37.34	 -58.33	 1.022173	 100.0	 1	 116.03	 0.0	 0.0	 0.0	 0.0	 0.0	 0.0	 0.0	 0.0	 0.0	 0.0	 0.0	 0.0; % COW
	511	 100.0	 33.17	 94.38	 -28.04	 1.081589	 100.0	 1	 200.0	 0.0	 0.0	 0.0	 0.0	 0.0	 0.0	 0.0	 0.0	 0.0	 0.0	 0.0	 0.0; % NG
	515	 450.0	 22.63	 72.5	 -27.24	 1.045162	 100.0	 1	 700.0	 200.0	 0.0	 0.0	 0.0	 0.0	 0.0	 0.0	 0.0	 0.0	 0.0	 0.0	 0.0; % COW
	516	 400.0	 77.56	 261.79	 -106.67	 1.07129	 100.0	 1	 600.0	 200.0	 0.0	 0.0	 0.0	 0.0	 0.0	 0.0	 0.0	 0.0	 0.0	 0.0	 0.0; % COW
	518	 -223.535	 24.21	 85.63	 -37.21	 1.067615	 100.0	 1	 100.0	 -547.07	 0.0	 0.0	 0.0	 0.0	 0.0	 0.0	 0.0	 0.0	 0.0	 0.0	 0.0; % NG
	524	 36.225	 -6.46	 30.15	 -43.07	 1.046979	 100.0	 1	 72.45	 0.0	 0.0	 0.0	 0.0	 0.0	 0.0	 0.0	 0.0	 0.0	 0.0	 0.0	 0.0; % PEL
	541	 62.095	 -9.69	 7.81	 -27.19	 1.03819	 100.0	 1	 124.19	 0.0	 0.0	 0.0	 0.0	 0.0	 0.0	 0.0	 0.0	 0.0	 0.0	 0.0	 0.0; % NG
	564	 15.555	 -0.44	 18.47	 -19.35	 1.06702	 100.0	 1	 100.0	 -68.89	 0.0	 0.0	 0.0	 0.0	 0.0	 0.0	 0.0	 0.0	 0.0	 0.0	 0.0; % NG
	578	 -23.535	 7.435	 25.88	 -11.01	 1.042146	 100.0	 1	 100.0	 -147.07	 0.0	 0.0	 0.0	 0.0	 0.0	 0.0	 0.0	 0.0	 0.0	 0.0	 0.0; % NG
	583	 -130.0	 5.425	 17.88	 -7.03	 1.048595	 100.0	 1	 100.0	 -360.0	 0.0	 0.0	 0.0	 0.0	 0.0	 0.0	 0.0	 0.0	 0.0	 0.0	 0.0; % NG
	587	 266.665	 63.085	 185.56	 -59.39	 1.040079	 100.0	 1	 400.0	 133.33	 0.0	 0.0	 0.0	 0.0	 0.0	 0.0	 0.0	 0.0	 0.0	 0.0	 0.0; % NG
	590	 183.565	 135.115	 380.31	 -110.08	 1.065004	 100.0	 1	 300.0	 67.13	 0.0	 0.0	 0.0	 0.0	 0.0	 0.0	 0.0	 0.0	 0.0	 0.0	 0.0; % NG
	615	 20.0	 4.65	 17.09	 -7.79	 1.068592	 100.0	 1	 40.0	 0.0	 0.0	 0.0	 0.0	 0.0	 0.0	 0.0	 0.0	 0.0	 0.0	 0.0	 0.0; % NG
	616	 320.0	 68.37	 217.9	 -81.16	 1.04484	 100.0	 1	 480.0	 160.0	 0.0	 0.0	 0.0	 0.0	 0.0	 0.0	 0.0	 0.0	 0.0	 0.0	 0.0; % NG
	618	 533.335	 106.035	 351.18	 -139.11	 1.022784	 100.0	 1	 800.0	 266.67	 0.0	 0.0	 0.0	 0.0	 0.0	 0.0	 0.0	 0.0	 0.0	 0.0	 0.0; % COW
	628	 90.0	 23.55	 78.79	 -31.69	 0.982057	 100.0	 1	 180.0	 0.0	 0.0	 0.0	 0.0	 0.0	 0.0	 0.0	 0.0	 0.0	 0.0	 0.0	 0.0; % NG
	636	 60.0	 15.56	 52.99	 -21.87	 1.04241	 100.0	 1	 120.0	 0.0	 0.0	 0.0	 0.0	 0.0	 0.0	 0.0	 0.0	 0.0	 0.0	 0.0	 0.0; % NG
	637	 11.16	 1.38	 11.2	 -8.44	 1.031148	 100.0	 1	 22.32	 0.0	 0.0	 0.0	 0.0	 0.0	 0.0	 0.0	 0.0	 0.0	 0.0	 0.0	 0.0; % PEL
	639	 19.2	 48.31	 135.52	 -38.9	 1.033532	 100.0	 1	 100.0	 -61.6	 0.0	 0.0	 0.0	 0.0	 0.0	 0.0	 0.0	 0.0	 0.0	 0.0	 0.0; % NG
	642	 138.045	 -1.45	 90.13	 -93.03	 1.031368	 100.0	 1	 276.09	 0.0	 0.0	 0.0	 0.0	 0.0	 0.0	 0.0	 0.0	 0.0	 0.0	 0.0	 0.0; % COW
	648	 40.0	 13.04	 37.95	 -11.87	 1.02749	 100.0	 1	 80.0	 0.0	 0.0	 0.0	 0.0	 0.0	 0.0	 0.0	 0.0	 0.0	 0.0	 0.0	 0.0; % NG
	672	 102.905	 4.2	 71.32	 -62.92	 1.02121	 100.0	 1	 205.81	 0.0	 0.0	 0.0	 0.0	 0.0	 0.0	 0.0	 0.0	 0.0	 0.0	 0.0	 0.0; % NG
	682	 40.0	 13.855	 38.77	 -11.06	 1.060787	 100.0	 1	 80.0	 0.0	 0.0	 0.0	 0.0	 0.0	 0.0	 0.0	 0.0	 0.0	 0.0	 0.0	 0.0; % NG
	686	 35.57	 0.245	 34.75	 -34.26	 1.013903	 100.0	 1	 100.0	 -28.86	 0.0	 0.0	 0.0	 0.0	 0.0	 0.0	 0.0	 0.0	 0.0	 0.0	 0.0; % NG
	692	 266.665	 59.69	 182.17	 -62.79	 1.059006	 100.0	 1	 400.0	 133.33	 0.0	 0.0	 0.0	 0.0	 0.0	 0.0	 0.0	 0.0	 0.0	 0.0	 0.0; % NG
	697	 533.335	 112.325	 357.4	 -132.75	 1.031719	 100.0	 1	 800.0	 266.67	 0.0	 0.0	 0.0	 0.0	 0.0	 0.0	 0.0	 0.0	 0.0	 0.0	 0.0; % COW
	698	 200.0	 38.015	 129.94	 -53.91	 0.999662	 100.0	 1	 300.0	 100.0	 0.0	 0.0	 0.0	 0.0	 0.0	 0.0	 0.0	 0.0	 0.0	 0.0	 0.0; % NG
	709	 32.65	 0.7	 22.23	 -20.83	 1.068875	 100.0	 1	 65.3	 0.0	 0.0	 0.0	 0.0	 0.0	 0.0	 0.0	 0.0	 0.0	 0.0	 0.0	 0.0; % PEL
	711	 59.265	 131.69	 377.01	 -113.63	 1.070147	 100.0	 1	 100.0	 18.53	 0.0	 0.0	 0.0	 0.0	 0.0	 0.0	 0.0	 0.0	 0.0	 0.0	 0.0; % NG
	713	 60.0	 16.595	 53.98	 -20.79	 1.034791	 100.0	 1	 120.0	 0.0	 0.0	 0.0	 0.0	 0.0	 0.0	 0.0	 0.0	 0.0	 0.0	 0.0	 0.0; % NG
	714	 533.335	 131.14	 376.36	 -114.08	 1.065017	 100.0	 1	 800.0	 266.67	 0.0	 0.0	 0.0	 0.0	 0.0	 0.0	 0.0	 0.0	 0.0	 0.0	 0.0; % NUC
	715	 244.0	 -56.765	 66.42	 -179.95	 1.021604	 100.0	 1	 366.0	 122.0	 0.0	 0.0	 0.0	 0.0	 0.0	 0.0	 0.0	 0.0	 0.0	 0.0	 0.0; % NG
	727	 533.335	 134.26	 379.61	 -111.09	 1.070143	 100.0	 1	 800.0	 266.67	 0.0	 0.0	 0.0	 0.0	 0.0	 0.0	 0.0	 0.0	 0.0	 0.0	 0.0; % COW
	728	 37.14	 -4.29	 35.73	 -44.31	 1.030375	 100.0	 1	 74.28	 0.0	 0.0	 0.0	 0.0	 0.0	 0.0	 0.0	 0.0	 0.0	 0.0	 0.0	 0.0; % PEL
	735	 89.25	 -16.06	 89.94	 -122.06	 1.026593	 100.0	 1	 178.5	 0.0	 0.0	 0.0	 0.0	 0.0	 0.0	 0.0	 0.0	 0.0	 0.0	 0.0	 0.0; % NG
	738	 172.995	 6.355	 107.86	 -95.15	 1.033376	 100.0	 1	 311.39	 34.6	 0.0	 0.0	 0.0	 0.0	 0.0	 0.0	 0.0	 0.0	 0.0	 0.0	 0.0; % COW
	739	 333.335	 59.76	 212.97	 -93.45	 1.035442	 100.0	 1	 500.0	 166.67	 0.0	 0.0	 0.0	 0.0	 0.0	 0.0	 0.0	 0.0	 0.0	 0.0	 0.0; % NG
	749	 120.0	 30.925	 105.69	 -43.84	 1.053546	 100.0	 1	 240.0	 0.0	 0.0	 0.0	 0.0	 0.0	 0.0	 0.0	 0.0	 0.0	 0.0	 0.0	 0.0; % NG
	751	 150.0	 44.85	 136.94	 -47.24	 1.020488	 100.0	 1	 300.0	 0.0	 0.0	 0.0	 0.0	 0.0	 0.0	 0.0	 0.0	 0.0	 0.0	 0.0	 0.0; % NG
	757	 60.0	 13.945	 51.3	 -23.41	 1.013994	 100.0	 1	 120.0	 0.0	 0.0	 0.0	 0.0	 0.0	 0.0	 0.0	 0.0	 0.0	 0.0	 0.0	 0.0; % COW
	763	 30.0	 9.455	 27.88	 -8.97	 1.042899	 100.0	 1	 60.0	 0.0	 0.0	 0.0	 0.0	 0.0	 0.0	 0.0	 0.0	 0.0	 0.0	 0.0	 0.0; % COW
	764	 266.665	 51.525	 174.17	 -71.12	 1.048246	 100.0	 1	 400.0	 133.33	 0.0	 0.0	 0.0	 0.0	 0.0	 0.0	 0.0	 0.0	 0.0	 0.0	 0.0; % COW
	765	 90.0	 21.46	 76.76	 -33.84	 1.017174	 100.0	 1	 180.0	 0.0	 0.0	 0.0	 0.0	 0.0	 0.0	 0.0	 0.0	 0.0	 0.0	 0.0	 0.0; % NG
	774	 70.56	 10.415	 81.57	 -60.74	 1.038992	 100.0	 1	 141.12	 0.0	 0.0	 0.0	 0.0	 0.0	 0.0	 0.0	 0.0	 0.0	 0.0	 0.0	 0.0; % NG
	776	 -24.265	 5.715	 18.16	 -6.73	 1.023986	 100.0	 1	 100.0	 -148.53	 0.0	 0.0	 0.0	 0.0	 0.0	 0.0	 0.0	 0.0	 0.0	 0.0	 0.0; % NG
	778	 16.79	 1.505	 12.37	 -9.36	 1.047837	 100.0	 1	 33.58	 0.0	 0.0	 0.0	 0.0	 0.0	 0.0	 0.0	 0.0	 0.0	 0.0	 0.0	 0.0; % NG
	779	 22.5	 4.88	 17.34	 -7.58	 1.039304	 100.0	 1	 45.0	 0.0	 0.0	 0.0	 0.0	 0.0	 0.0	 0.0	 0.0	 0.0	 0.0	 0.0	 0.0; % NG
	780	 40.0	 12.555	 37.43	 -12.32	 1.001975	 100.0	 1	 80.0	 0.0	 0.0	 0.0	 0.0	 0.0	 0.0	 0.0	 0.0	 0.0	 0.0	 0.0	 0.0; % NG
	791	 800.0	 200.075	 567.63	 -167.48	 1.052091	 100.0	 1	 1200.0	 400.0	 0.0	 0.0	 0.0	 0.0	 0.0	 0.0	 0.0	 0.0	 0.0	 0.0	 0.0; % NUC
	795	 40.0	 11.855	 36.75	 -13.04	 1.041931	 100.0	 1	 80.0	 0.0	 0.0	 0.0	 0.0	 0.0	 0.0	 0.0	 0.0	 0.0	 0.0	 0.0	 0.0; % NG
	796	 40.0	 14.13	 39.0	 -10.74	 1.01604	 100.0	 1	 80.0	 0.0	 0.0	 0.0	 0.0	 0.0	 0.0	 0.0	 0.0	 0.0	 0.0	 0.0	 0.0; % NG
	803	 -9.465	 24.245	 74.03	 -25.54	 1.04662	 100.0	 1	 100.0	 -118.93	 0.0	 0.0	 0.0	 0.0	 0.0	 0.0	 0.0	 0.0	 0.0	 0.0	 0.0; % NG
	807	 1333.335	 251.75	 864.47	 -360.97	 1.053518	 100.0	 1	 2000.0	 666.67	 0.0	 0.0	 0.0	 0.0	 0.0	 0.0	 0.0	 0.0	 0.0	 0.0	 0.0; % NUC
	813	 401.335	 9.075	 309.08	 -290.93	 1.037003	 100.0	 1	 602.0	 200.67	 0.0	 0.0	 0.0	 0.0	 0.0	 0.0	 0.0	 0.0	 0.0	 0.0	 0.0; % COW
	823	 1333.335	 314.185	 926.68	 -298.31	 1.039055	 100.0	 1	 2000.0	 666.67	 0.0	 0.0	 0.0	 0.0	 0.0	 0.0	 0.0	 0.0	 0.0	 0.0	 0.0; % NUC
	828	 29.35	 -0.78	 20.87	 -22.43	 1.044382	 100.0	 1	 58.7	 0.0	 0.0	 0.0	 0.0	 0.0	 0.0	 0.0	 0.0	 0.0	 0.0	 0.0	 0.0; % NG
	831	 60.0	 18.205	 55.59	 -19.18	 1.003271	 100.0	 1	 120.0	 0.0	 0.0	 0.0	 0.0	 0.0	 0.0	 0.0	 0.0	 0.0	 0.0	 0.0	 0.0; % NG
	832	 400.0	 80.94	 264.71	 -102.83	 1.004583	 100.0	 1	 600.0	 200.0	 0.0	 0.0	 0.0	 0.0	 0.0	 0.0	 0.0	 0.0	 0.0	 0.0	 0.0; % COW
	837	 30.0	 8.765	 27.19	 -9.66	 1.022737	 100.0	 1	 60.0	 0.0	 0.0	 0.0	 0.0	 0.0	 0.0	 0.0	 0.0	 0.0	 0.0	 0.0	 0.0; % PEL
	844	 60.0	 16.94	 54.35	 -20.47	 1.064419	 100.0	 1	 120.0	 0.0	 0.0	 0.0	 0.0	 0.0	 0.0	 0.0	 0.0	 0.0	 0.0	 0.0	 0.0; % NG
	848	 51.345	 5.755	 49.63	 -38.12	 1.011431	 100.0	 1	 100.0	 2.69	 0.0	 0.0	 0.0	 0.0	 0.0	 0.0	 0.0	 0.0	 0.0	 0.0	 0.0; % NG
	849	 8.785	 0.77	 6.45	 -4.91	 1.037264	 100.0	 1	 17.57	 0.0	 0.0	 0.0	 0.0	 0.0	 0.0	 0.0	 0.0	 0.0	 0.0	 0.0	 0.0; % NG
	851	 100.0	 34.415	 96.64	 -27.81	 1.018845	 100.0	 1	 200.0	 0.0	 0.0	 0.0	 0.0	 0.0	 0.0	 0.0	 0.0	 0.0	 0.0	 0.0	 0.0; % NG
	858	 666.665	 134.26	 440.67	 -172.15	 1.028813	 100.0	 1	 1000.0	 333.33	 0.0	 0.0	 0.0	 0.0	 0.0	 0.0	 0.0	 0.0	 0.0	 0.0	 0.0; % COW
	861	 60.0	 20.65	 57.98	 -16.68	 1.050818	 100.0	 1	 120.0	 0.0	 0.0	 0.0	 0.0	 0.0	 0.0	 0.0	 0.0	 0.0	 0.0	 0.0	 0.0; % COW
	875	 333.335	 74.985	 228.16	 -78.19	 1.038959	 100.0	 1	 500.0	 166.67	 0.0	 0.0	 0.0	 0.0	 0.0	 0.0	 0.0	 0.0	 0.0	 0.0	 0.0; % NG
	888	 200.0	 46.665	 138.6	 -45.27	 1.037604	 100.0	 1	 300.0	 100.0	 0.0	 0.0	 0.0	 0.0	 0.0	 0.0	 0.0	 0.0	 0.0	 0.0	 0.0; % COW
	891	 1600.0	 361.75	 1097.41	 -373.91	 1.062964	 100.0	 1	 2400.0	 800.0	 0.0	 0.0	 0.0	 0.0	 0.0	 0.0	 0.0	 0.0	 0.0	 0.0	 0.0; % COW
	894	 160.0	 42.095	 141.93	 -57.74	 1.054199	 100.0	 1	 320.0	 0.0	 0.0	 0.0	 0.0	 0.0	 0.0	 0.0	 0.0	 0.0	 0.0	 0.0	 0.0; % NG
	896	 48.2	 -1.4	 8.6	 -11.4	 1.021987	 100.0	 1	 100.0	 -3.6	 0.0	 0.0	 0.0	 0.0	 0.0	 0.0	 0.0	 0.0	 0.0	 0.0	 0.0; % NG
	913	 1133.335	 251.085	 772.11	 -269.94	 1.026545	 100.0	 1	 1700.0	 566.67	 0.0	 0.0	 0.0	 0.0	 0.0	 0.0	 0.0	 0.0	 0.0	 0.0	 0.0; % COW
	916	 150.0	 42.345	 134.45	 -49.76	 1.022135	 100.0	 1	 300.0	 0.0	 0.0	 0.0	 0.0	 0.0	 0.0	 0.0	 0.0	 0.0	 0.0	 0.0	 0.0; % COW
	917	 20.0	 5.745	 18.22	 -6.73	 1.061631	 100.0	 1	 40.0	 0.0	 0.0	 0.0	 0.0	 0.0	 0.0	 0.0	 0.0	 0.0	 0.0	 0.0	 0.0; % NG
	926	 314.665	 56.58	 201.12	 -87.96	 1.008066	 100.0	 1	 472.0	 157.33	 0.0	 0.0	 0.0	 0.0	 0.0	 0.0	 0.0	 0.0	 0.0	 0.0	 0.0; % COW
	927	 30.0	 10.265	 28.69	 -8.16	 1.067901	 100.0	 1	 60.0	 0.0	 0.0	 0.0	 0.0	 0.0	 0.0	 0.0	 0.0	 0.0	 0.0	 0.0	 0.0; % NG
	930	 600.0	 130.955	 406.66	 -144.75	 1.058189	 100.0	 1	 900.0	 300.0	 0.0	 0.0	 0.0	 0.0	 0.0	 0.0	 0.0	 0.0	 0.0	 0.0	 0.0; % COW
	972	 1333.335	 321.605	 934.73	 -291.52	 1.078612	 100.0	 1	 2000.0	 666.67	 0.0	 0.0	 0.0	 0.0	 0.0	 0.0	 0.0	 0.0	 0.0	 0.0	 0.0; % COW
	974	 60.0	 17.075	 54.36	 -20.21	 1.033045	 100.0	 1	 120.0	 0.0	 0.0	 0.0	 0.0	 0.0	 0.0	 0.0	 0.0	 0.0	 0.0	 0.0	 0.0; % COW
	976	 53.915	 0.335	 36.02	 -35.35	 1.024328	 100.0	 1	 107.83	 0.0	 0.0	 0.0	 0.0	 0.0	 0.0	 0.0	 0.0	 0.0	 0.0	 0.0	 0.0; % COW
	978	 7.575	 1.72	 6.43	 -2.99	 1.017319	 100.0	 1	 15.15	 0.0	 0.0	 0.0	 0.0	 0.0	 0.0	 0.0	 0.0	 0.0	 0.0	 0.0	 0.0; % PEL
	983	 1333.335	 335.545	 948.36	 -277.27	 1.078039	 100.0	 1	 2000.0	 666.67	 0.0	 0.0	 0.0	 0.0	 0.0	 0.0	 0.0	 0.0	 0.0	 0.0	 0.0; % COW
	984	 1066.665	 249.045	 738.93	 -240.84	 1.031963	 100.0	 1	 1600.0	 533.33	 0.0	 0.0	 0.0	 0.0	 0.0	 0.0	 0.0	 0.0	 0.0	 0.0	 0.0; % COW
	991	 20.0	 4.39	 16.83	 -8.05	 1.001634	 100.0	 1	 40.0	 0.0	 0.0	 0.0	 0.0	 0.0	 0.0	 0.0	 0.0	 0.0	 0.0	 0.0	 0.0; % NG
	992	 30.0	 7.55	 25.97	 -10.87	 1.030255	 100.0	 1	 60.0	 0.0	 0.0	 0.0	 0.0	 0.0	 0.0	 0.0	 0.0	 0.0	 0.0	 0.0	 0.0; % NG
	993	 -41.265	 5.39	 17.85	 -7.07	 1.037248	 100.0	 1	 100.0	 -182.53	 0.0	 0.0	 0.0	 0.0	 0.0	 0.0	 0.0	 0.0	 0.0	 0.0	 0.0; % NG
	1001	 60.0	 17.605	 55.02	 -19.81	 1.069874	 100.0	 1	 120.0	 0.0	 0.0	 0.0	 0.0	 0.0	 0.0	 0.0	 0.0	 0.0	 0.0	 0.0	 0.0; % NG
	1002	 100.0	 27.2	 89.55	 -35.15	 1.03837	 100.0	 1	 200.0	 0.0	 0.0	 0.0	 0.0	 0.0	 0.0	 0.0	 0.0	 0.0	 0.0	 0.0	 0.0; % NG
	1004	 50.0	 13.295	 43.99	 -17.4	 0.99944	 100.0	 1	 100.0	 0.0	 0.0	 0.0	 0.0	 0.0	 0.0	 0.0	 0.0	 0.0	 0.0	 0.0	 0.0; % NG
	1021	 -69.535	 21.055	 58.34	 -16.23	 1.012345	 100.0	 1	 100.0	 -239.07	 0.0	 0.0	 0.0	 0.0	 0.0	 0.0	 0.0	 0.0	 0.0	 0.0	 0.0; % NG
	1029	 100.0	 29.455	 90.64	 -31.73	 1.037886	 100.0	 1	 200.0	 0.0	 0.0	 0.0	 0.0	 0.0	 0.0	 0.0	 0.0	 0.0	 0.0	 0.0	 0.0; % COW
	1030	 250.0	 21.885	 71.66	 -27.89	 1.007808	 100.0	 1	 400.0	 100.0	 0.0	 0.0	 0.0	 0.0	 0.0	 0.0	 0.0	 0.0	 0.0	 0.0	 0.0; % NG
	1036	 200.0	 45.47	 137.39	 -46.45	 1.037074	 100.0	 1	 300.0	 100.0	 0.0	 0.0	 0.0	 0.0	 0.0	 0.0	 0.0	 0.0	 0.0	 0.0	 0.0; % NG
	1043	 600.0	 112.24	 387.88	 -163.4	 1.027465	 100.0	 1	 900.0	 300.0	 0.0	 0.0	 0.0	 0.0	 0.0	 0.0	 0.0	 0.0	 0.0	 0.0	 0.0; % COW
	1050	 385.385	 50.855	 173.5	 -71.79	 1.055375	 100.0	 1	 518.72	 252.05	 0.0	 0.0	 0.0	 0.0	 0.0	 0.0	 0.0	 0.0	 0.0	 0.0	 0.0; % NG
	1082	 266.665	 49.06	 171.62	 -73.5	 1.027941	 100.0	 1	 400.0	 133.33	 0.0	 0.0	 0.0	 0.0	 0.0	 0.0	 0.0	 0.0	 0.0	 0.0	 0.0; % NG
	1083	 60.0	 17.515	 54.91	 -19.88	 1.050507	 100.0	 1	 120.0	 0.0	 0.0	 0.0	 0.0	 0.0	 0.0	 0.0	 0.0	 0.0	 0.0	 0.0	 0.0; % COW
	1088	 22.995	 2.2	 8.06	 -3.66	 1.025882	 100.0	 1	 45.99	 0.0	 0.0	 0.0	 0.0	 0.0	 0.0	 0.0	 0.0	 0.0	 0.0	 0.0	 0.0; % NG
	1093	 800.0	 182.77	 550.69	 -185.15	 1.024587	 100.0	 1	 1200.0	 400.0	 0.0	 0.0	 0.0	 0.0	 0.0	 0.0	 0.0	 0.0	 0.0	 0.0	 0.0; % COW
	1097	 9.19	 -0.235	 6.17	 -6.64	 1.013606	 100.0	 1	 18.38	 0.0	 0.0	 0.0	 0.0	 0.0	 0.0	 0.0	 0.0	 0.0	 0.0	 0.0	 0.0; % NG
	1098	 133.335	 30.09	 91.42	 -31.24	 1.104358	 100.0	 1	 200.0	 66.67	 0.0	 0.0	 0.0	 0.0	 0.0	 0.0	 0.0	 0.0	 0.0	 0.0	 0.0; % NG
	1100	 40.0	 11.895	 36.8	 -13.01	 1.042301	 100.0	 1	 80.0	 0.0	 0.0	 0.0	 0.0	 0.0	 0.0	 0.0	 0.0	 0.0	 0.0	 0.0	 0.0; % COW
	1102	 -32.77	 13.23	 38.05	 -11.59	 1.048163	 100.0	 1	 100.0	 -165.54	 0.0	 0.0	 0.0	 0.0	 0.0	 0.0	 0.0	 0.0	 0.0	 0.0	 0.0; % NG
	1103	 533.335	 132.0	 376.66	 -112.66	 1.043526	 100.0	 1	 800.0	 266.67	 0.0	 0.0	 0.0	 0.0	 0.0	 0.0	 0.0	 0.0	 0.0	 0.0	 0.0; % COW
	1117	 576.0	 -89.82	 307.47	 -487.11	 1.009173	 100.0	 1	 864.0	 288.0	 0.0	 0.0	 0.0	 0.0	 0.0	 0.0	 0.0	 0.0	 0.0	 0.0	 0.0; % COW
	1119	 200.0	 34.58	 126.49	 -57.33	 1.044725	 100.0	 1	 300.0	 100.0	 0.0	 0.0	 0.0	 0.0	 0.0	 0.0	 0.0	 0.0	 0.0	 0.0	 0.0; % NG
	1121	 180.0	 47.695	 158.2	 -62.81	 1.017488	 100.0	 1	 360.0	 0.0	 0.0	 0.0	 0.0	 0.0	 0.0	 0.0	 0.0	 0.0	 0.0	 0.0	 0.0; % COW
	1122	 95.14	 5.96	 68.0	 -56.08	 1.043868	 100.0	 1	 190.28	 0.0	 0.0	 0.0	 0.0	 0.0	 0.0	 0.0	 0.0	 0.0	 0.0	 0.0	 0.0; % NG
	1125	 120.0	 39.915	 114.57	 -34.74	 1.04319	 100.0	 1	 240.0	 0.0	 0.0	 0.0	 0.0	 0.0	 0.0	 0.0	 0.0	 0.0	 0.0	 0.0	 0.0; % NG
	1131	 600.0	 132.025	 407.66	 -143.61	 1.036981	 100.0	 1	 900.0	 300.0	 0.0	 0.0	 0.0	 0.0	 0.0	 0.0	 0.0	 0.0	 0.0	 0.0	 0.0; % COW
	1138	 666.665	 125.87	 432.44	 -180.7	 1.088765	 100.0	 1	 1000.0	 333.33	 0.0	 0.0	 0.0	 0.0	 0.0	 0.0	 0.0	 0.0	 0.0	 0.0	 0.0; % NUC
	1139	 120.0	 33.195	 107.89	 -41.5	 1.054186	 100.0	 1	 240.0	 0.0	 0.0	 0.0	 0.0	 0.0	 0.0	 0.0	 0.0	 0.0	 0.0	 0.0	 0.0; % COW
	1145	 245.12	 4.415	 153.07	 -144.24	 1.040382	 100.0	 1	 452.53	 37.71	 0.0	 0.0	 0.0	 0.0	 0.0	 0.0	 0.0	 0.0	 0.0	 0.0	 0.0; % NG
	1173	 -33.135	 0.485	 1.85	 -0.88	 1.018544	 100.0	 1	 100.0	 -166.27	 0.0	 0.0	 0.0	 0.0	 0.0	 0.0	 0.0	 0.0	 0.0	 0.0	 0.0; % NG
	1174	 20.0	 6.165	 18.61	 -6.28	 1.002801	 100.0	 1	 40.0	 0.0	 0.0	 0.0	 0.0	 0.0	 0.0	 0.0	 0.0	 0.0	 0.0	 0.0	 0.0; % PEL
	1175	 450.0	 34.615	 108.35	 -39.12	 1.038334	 100.0	 1	 700.0	 200.0	 0.0	 0.0	 0.0	 0.0	 0.0	 0.0	 0.0	 0.0	 0.0	 0.0	 0.0; % COW
	1176	 52.23	 33.02	 94.13	 -28.09	 1.016193	 100.0	 1	 100.0	 4.46	 0.0	 0.0	 0.0	 0.0	 0.0	 0.0	 0.0	 0.0	 0.0	 0.0	 0.0; % NG
	1184	 200.0	 55.235	 178.02	 -67.55	 1.037371	 100.0	 1	 400.0	 0.0	 0.0	 0.0	 0.0	 0.0	 0.0	 0.0	 0.0	 0.0	 0.0	 0.0	 0.0; % NG
	1220	 90.0	 28.795	 84.07	 -26.48	 1.008655	 100.0	 1	 180.0	 0.0	 0.0	 0.0	 0.0	 0.0	 0.0	 0.0	 0.0	 0.0	 0.0	 0.0	 0.0; % NG
	1225	 145.215	 31.6	 118.84	 -55.64	 1.051668	 100.0	 1	 290.43	 0.0	 0.0	 0.0	 0.0	 0.0	 0.0	 0.0	 0.0	 0.0	 0.0	 0.0	 0.0; % NG
	1237	 1333.335	 293.585	 906.61	 -319.44	 1.103909	 100.0	 1	 2000.0	 666.67	 0.0	 0.0	 0.0	 0.0	 0.0	 0.0	 0.0	 0.0	 0.0	 0.0	 0.0; % NG
	1241	 32.815	 0.655	 22.29	 -20.98	 1.019582	 100.0	 1	 65.63	 0.0	 0.0	 0.0	 0.0	 0.0	 0.0	 0.0	 0.0	 0.0	 0.0	 0.0	 0.0; % NG
...
];

%% generator cost data
%	2	startup	shutdown	n	c(n-1)	...	c0
mpc.gencost = [
	2	 0.0	 0.0	 3	   0.000000	  58.248605	   0.000000; % NG
	2	 0.0	 0.0	 3	   0.000000	  33.856670	   0.000000; % COW
	2	 0.0	 0.0	 3	   0.000000	  20.118274	   0.000000; % COW
	2	 0.0	 0.0	 3	   0.000000	  44.899515	   0.000000; % NG
	2	 0.0	 0.0	 3	   0.000000	  34.626757	   0.000000; % COW
	2	 0.0	 0.0	 3	   0.000000	 114.499497	   0.000000; % PEL
	2	 0.0	 0.0	 3	   0.000000	  40.088271	   0.000000; % NG
	2	 0.0	 0.0	 3	   0.000000	 122.371043	   0.000000; % PEL
	2	 0.0	 0.0	 3	   0.000000	  53.216536	   0.000000; % NG
	2	 0.0	 0.0	 3	   0.000000	  20.677657	   0.000000; % COW
	2	 0.0	 0.0	 3	   0.000000	  20.485829	   0.000000; % COW
	2	 0.0	 0.0	 3	   0.000000	  28.378694	   0.000000; % COW
	2	 0.0	 0.0	 3	   0.000000	  17.901688	   0.000000; % COW
	2	 0.0	 0.0	 3	   0.000000	  26.082071	   0.000000; % COW
	2	 0.0	 0.0	 3	   0.000000	  39.106495	   0.000000; % NG
	2	 0.0	 0.0	 3	   0.000000	  15.738979	   0.000000; % COW
	2	 0.0	 0.0	 3	   0.000000	  41.329894	   0.000000; % COW
	2	 0.0	 0.0	 3	   0.000000	  44.607933	   0.000000; % NG
	2	 0.0	 0.0	 3	   0.000000	  24.920311	   0.000000; % COW
	2	 0.0	 0.0	 3	   0.000000	  33.673125	   0.000000; % NG
	2	 0.0	 0.0	 3	   0.000000	  75.613546	   0.000000; % NG
	2	 0.0	 0.0	 3	   0.000000	  51.694071	   0.000000; % NG
	2	 0.0	 0.0	 3	   0.000000	  37.682745	   0.000000; % NG
	2	 0.0	 0.0	 3	   0.000000	  44.522379	   0.000000; % NG
	2	 0.0	 0.0	 3	   0.000000	  31.403386	   0.000000; % COW
	2	 0.0	 0.0	 3	   0.000000	  47.662211	   0.000000; % NG
	2	 0.0	 0.0	 3	   0.000000	 132.904440	   0.000000; % PEL
	2	 0.0	 0.0	 3	   0.000000	  35.455256	   0.000000; % NG
	2	 0.0	 0.0	 3	   0.000000	  11.391201	   0.000000; % COW
	2	 0.0	 0.0	 3	   0.000000	  21.057814	   0.000000; % COW
	2	 0.0	 0.0	 3	   0.000000	  33.079963	   0.000000; % NG
	2	 0.0	 0.0	 3	   0.000000	  18.812087	   0.000000; % COW
	2	 0.0	 0.0	 3	   0.000000	  60.009258	   0.000000; % NG
	2	 0.0	 0.0	 3	   0.000000	  21.246935	   0.000000; % COW
	2	 0.0	 0.0	 3	   0.000000	  30.977708	   0.000000; % COW
	2	 0.0	 0.0	 3	   0.000000	  44.242676	   0.000000; % NG
	2	 0.0	 0.0	 3	   0.000000	  20.437129	   0.000000; % NG
	2	 0.0	 0.0	 3	   0.000000	  41.069984	   0.000000; % NG
	2	 0.0	 0.0	 3	   0.000000	  57.624976	   0.000000; % NG
	2	 0.0	 0.0	 3	   0.000000	  25.479340	   0.000000; % COW
	2	 0.0	 0.0	 3	   0.000000	 138.782010	   0.000000; % PEL
	2	 0.0	 0.0	 3	   0.000000	  70.833602	   0.000000; % NG
	2	 0.0	 0.0	 3	   0.000000	  24.178294	   0.000000; % COW
	2	 0.0	 0.0	 3	   0.000000	  43.269453	   0.000000; % NG
	2	 0.0	 0.0	 3	   0.000000	  29.184092	   0.000000; % COW
	2	 0.0	 0.0	 3	   0.000000	  46.562988	   0.000000; % NG
	2	 0.0	 0.0	 3	   0.000000	   7.434595	   0.000000; % NUC
	2	 0.0	 0.0	 3	   0.000000	  37.276059	   0.000000; % NG
	2	 0.0	 0.0	 3	   0.000000	  36.441064	   0.000000; % NG
	2	 0.0	 0.0	 3	   0.000000	  31.559639	   0.000000; % NG
	2	 0.0	 0.0	 3	   0.000000	  39.559630	   0.000000; % NG
	2	 0.0	 0.0	 3	   0.000000	  49.097016	   0.000000; % NG
	2	 0.0	 0.0	 3	   0.000000	  49.362649	   0.000000; % NG
	2	 0.0	 0.0	 3	   0.000000	  42.052713	   0.000000; % NG
	2	 0.0	 0.0	 3	   0.000000	  52.437515	   0.000000; % NG
	2	 0.0	 0.0	 3	   0.000000	  56.364858	   0.000000; % NG
	2	 0.0	 0.0	 3	   0.000000	  31.993672	   0.000000; % NG
	2	 0.0	 0.0	 3	   0.000000	  52.550834	   0.000000; % NG
	2	 0.0	 0.0	 3	   0.000000	  30.621722	   0.000000; % COW
	2	 0.0	 0.0	 3	   0.000000	  55.496650	   0.000000; % NG
	2	 0.0	 0.0	 3	   0.000000	  43.463942	   0.000000; % NG
	2	 0.0	 0.0	 3	   0.000000	  16.817113	   0.000000; % COW
	2	 0.0	 0.0	 3	   0.000000	 114.089143	   0.000000; % PEL
	2	 0.0	 0.0	 3	   0.000000	  32.708436	   0.000000; % COW
	2	 0.0	 0.0	 3	   0.000000	  47.828674	   0.000000; % NG
	2	 0.0	 0.0	 3	   0.000000	  25.557863	   0.000000; % COW
	2	 0.0	 0.0	 3	   0.000000	  24.155258	   0.000000; % COW
	2	 0.0	 0.0	 3	   0.000000	  43.691457	   0.000000; % NG
	2	 0.0	 0.0	 3	   0.000000	  24.665265	   0.000000; % NG
	2	 0.0	 0.0	 3	   0.000000	  49.287708	   0.000000; % NG
	2	 0.0	 0.0	 3	   0.000000	  58.289539	   0.000000; % NG
	2	 0.0	 0.0	 3	   0.000000	  49.074352	   0.000000; % NG
	2	 0.0	 0.0	 3	   0.000000	  25.415252	   0.000000; % NG
	2	 0.0	 0.0	 3	   0.000000	  40.564537	   0.000000; % NG
	2	 0.0	 0.0	 3	   0.000000	  39.789711	   0.000000; % NG
	2	 0.0	 0.0	 3	   0.000000	  37.304309	   0.000000; % NG
	2	 0.0	 0.0	 3	   0.000000	  22.789798	   0.000000; % COW
	2	 0.0	 0.0	 3	   0.000000	  51.499782	   0.000000; % NG
	2	 0.0	 0.0	 3	   0.000000	  41.056672	   0.000000; % NG
	2	 0.0	 0.0	 3	   0.000000	  25.320758	   0.000000; % COW
	2	 0.0	 0.0	 3	   0.000000	  38.890011	   0.000000; % NG
	2	 0.0	 0.0	 3	   0.000000	  33.208233	   0.000000; % COW
	2	 0.0	 0.0	 3	   0.000000	  26.922367	   0.000000; % COW
	2	 0.0	 0.0	 3	   0.000000	  51.659174	   0.000000; % NG
	2	 0.0	 0.0	 3	   0.000000	  85.943295	   0.000000; % PEL
	2	 0.0	 0.0	 3	   0.000000	  54.725914	   0.000000; % NG
	2	 0.0	 0.0	 3	   0.000000	  42.160155	   0.000000; % NG
	2	 0.0	 0.0	 3	   0.000000	  42.938653	   0.000000; % NG
	2	 0.0	 0.0	 3	   0.000000	  52.390229	   0.000000; % NG
	2	 0.0	 0.0	 3	   0.000000	  64.680585	   0.000000; % NG
	2	 0.0	 0.0	 3	   0.000000	  39.220509	   0.000000; % NG
	2	 0.0	 0.0	 3	   0.000000	  29.693300	   0.000000; % NG
	2	 0.0	 0.0	 3	   0.000000	  48.427208	   0.000000; % NG
	2	 0.0	 0.0	 3	   0.000000	  16.683659	   0.000000; % COW
	2	 0.0	 0.0	 3	   0.000000	  30.005888	   0.000000; % NG
	2	 0.0	 0.0	 3	   0.000000	  48.938486	   0.000000; % NG
	2	 0.0	 0.0	 3	   0.000000	 144.486503	   0.000000; % PEL
	2	 0.0	 0.0	 3	   0.000000	  39.457770	   0.000000; % NG
	2	 0.0	 0.0	 3	   0.000000	  31.665888	   0.000000; % COW
	2	 0.0	 0.0	 3	   0.000000	  61.671797	   0.000000; % NG
	2	 0.0	 0.0	 3	   0.000000	  54.762149	   0.000000; % NG
	2	 0.0	 0.0	 3	   0.000000	  53.286712	   0.000000; % NG
	2	 0.0	 0.0	 3	   0.000000	  40.813200	   0.000000; % NG
	2	 0.0	 0.0	 3	   0.000000	  46.610026	   0.000000; % NG
	2	 0.0	 0.0	 3	   0.000000	  17.213979	   0.000000; % COW
	2	 0.0	 0.0	 3	   0.000000	  38.333631	   0.000000; % NG
	2	 0.0	 0.0	 3	   0.000000	 119.634449	   0.000000; % PEL
	2	 0.0	 0.0	 3	   0.000000	  33.738320	   0.000000; % NG
	2	 0.0	 0.0	 3	   0.000000	  56.301487	   0.000000; % NG
	2	 0.0	 0.0	 3	   0.000000	   7.710233	   0.000000; % NUC
	2	 0.0	 0.0	 3	   0.000000	  34.087933	   0.000000; % NG
	2	 0.0	 0.0	 3	   0.000000	  35.348032	   0.000000; % COW
	2	 0.0	 0.0	 3	   0.000000	 125.320303	   0.000000; % PEL
	2	 0.0	 0.0	 3	   0.000000	  48.745605	   0.000000; % NG
	2	 0.0	 0.0	 3	   0.000000	  18.606386	   0.000000; % COW
	2	 0.0	 0.0	 3	   0.000000	  30.190469	   0.000000; % NG
	2	 0.0	 0.0	 3	   0.000000	  42.825253	   0.000000; % NG
	2	 0.0	 0.0	 3	   0.000000	  40.854880	   0.000000; % NG
	2	 0.0	 0.0	 3	   0.000000	  17.386791	   0.000000; % COW
	2	 0.0	 0.0	 3	   0.000000	  21.958275	   0.000000; % COW
	2	 0.0	 0.0	 3	   0.000000	  21.778663	   0.000000; % COW
	2	 0.0	 0.0	 3	   0.000000	  35.188550	   0.000000; % NG
	2	 0.0	 0.0	 3	   0.000000	  41.091659	   0.000000; % NG
	2	 0.0	 0.0	 3	   0.000000	  43.917982	   0.000000; % NG
	2	 0.0	 0.0	 3	   0.000000	  41.141381	   0.000000; % NG
	2	 0.0	 0.0	 3	   0.000000	  44.136440	   0.000000; % NG
	2	 0.0	 0.0	 3	   0.000000	  26.985497	   0.000000; % NG
	2	 0.0	 0.0	 3	   0.000000	   6.724671	   0.000000; % NUC
	2	 0.0	 0.0	 3	   0.000000	  39.124450	   0.000000; % NG
	2	 0.0	 0.0	 3	   0.000000	  50.555826	   0.000000; % NG
	2	 0.0	 0.0	 3	   0.000000	  57.346482	   0.000000; % NG
	2	 0.0	 0.0	 3	   0.000000	   7.901064	   0.000000; % NUC
	2	 0.0	 0.0	 3	   0.000000	  21.796415	   0.000000; % COW
	2	 0.0	 0.0	 3	   0.000000	   7.423282	   0.000000; % NUC
	2	 0.0	 0.0	 3	   0.000000	  57.622407	   0.000000; % NG
	2	 0.0	 0.0	 3	   0.000000	  54.289087	   0.000000; % NG
	2	 0.0	 0.0	 3	   0.000000	  28.149901	   0.000000; % COW
	2	 0.0	 0.0	 3	   0.000000	 150.199869	   0.000000; % PEL
	2	 0.0	 0.0	 3	   0.000000	  49.401164	   0.000000; % NG
	2	 0.0	 0.0	 3	   0.000000	  30.346235	   0.000000; % NG
	2	 0.0	 0.0	 3	   0.000000	  37.089483	   0.000000; % NG
	2	 0.0	 0.0	 3	   0.000000	  52.255570	   0.000000; % NG
	2	 0.0	 0.0	 3	   0.000000	  27.898037	   0.000000; % COW
	2	 0.0	 0.0	 3	   0.000000	  16.230633	   0.000000; % COW
	2	 0.0	 0.0	 3	   0.000000	  56.748362	   0.000000; % NG
	2	 0.0	 0.0	 3	   0.000000	  21.003322	   0.000000; % COW
	2	 0.0	 0.0	 3	   0.000000	  43.101178	   0.000000; % COW
	2	 0.0	 0.0	 3	   0.000000	  35.744185	   0.000000; % NG
	2	 0.0	 0.0	 3	   0.000000	  65.225914	   0.000000; % NG
	2	 0.0	 0.0	 3	   0.000000	  32.280972	   0.000000; % COW
	2	 0.0	 0.0	 3	   0.000000	  27.633650	   0.000000; % COW
	2	 0.0	 0.0	 3	   0.000000	  40.103815	   0.000000; % NG
	2	 0.0	 0.0	 3	   0.000000	  23.481473	   0.000000; % COW
	2	 0.0	 0.0	 3	   0.000000	  32.974625	   0.000000; % NG
	2	 0.0	 0.0	 3	   0.000000	  37.328748	   0.000000; % COW
	2	 0.0	 0.0	 3	   0.000000	  20.644484	   0.000000; % COW
	2	 0.0	 0.0	 3	   0.000000	  17.177930	   0.000000; % COW
	2	 0.0	 0.0	 3	   0.000000	  32.068907	   0.000000; % COW
	2	 0.0	 0.0	 3	   0.000000	 126.521624	   0.000000; % PEL
	2	 0.0	 0.0	 3	   0.000000	  29.608981	   0.000000; % COW
	2	 0.0	 0.0	 3	   0.000000	  34.432715	   0.000000; % COW
	2	 0.0	 0.0	 3	   0.000000	  57.327064	   0.000000; % NG
	2	 0.0	 0.0	 3	   0.000000	  43.108936	   0.000000; % NG
	2	 0.0	 0.0	 3	   0.000000	  46.229829	   0.000000; % NG
	2	 0.0	 0.0	 3	   0.000000	  30.928587	   0.000000; % NG
	2	 0.0	 0.0	 3	   0.000000	  52.040132	   0.000000; % NG
	2	 0.0	 0.0	 3	   0.000000	  48.446634	   0.000000; % NG
	2	 0.0	 0.0	 3	   0.000000	  57.383960	   0.000000; % NG
	2	 0.0	 0.0	 3	   0.000000	  11.666181	   0.000000; % COW
	2	 0.0	 0.0	 3	   0.000000	  63.146823	   0.000000; % NG
	2	 0.0	 0.0	 3	   0.000000	  45.864754	   0.000000; % NG
	2	 0.0	 0.0	 3	   0.000000	  25.973442	   0.000000; % COW
	2	 0.0	 0.0	 3	   0.000000	  65.061413	   0.000000; % NG
	2	 0.0	 0.0	 3	   0.000000	  33.411999	   0.000000; % NG
	2	 0.0	 0.0	 3	   0.000000	  31.694320	   0.000000; % COW
	2	 0.0	 0.0	 3	   0.000000	  32.584295	   0.000000; % NG
	2	 0.0	 0.0	 3	   0.000000	  23.976710	   0.000000; % COW
	2	 0.0	 0.0	 3	   0.000000	  51.848374	   0.000000; % NG
	2	 0.0	 0.0	 3	   0.000000	  43.437259	   0.000000; % NG
	2	 0.0	 0.0	 3	   0.000000	  14.417298	   0.000000; % COW
	2	 0.0	 0.0	 3	   0.000000	  44.756406	   0.000000; % NG
	2	 0.0	 0.0	 3	   0.000000	  28.109216	   0.000000; % COW
	2	 0.0	 0.0	 3	   0.000000	  33.399364	   0.000000; % COW
	2	 0.0	 0.0	 3	   0.000000	  47.180482	   0.000000; % NG
	2	 0.0	 0.0	 3	   0.000000	  27.510056	   0.000000; % COW
	2	 0.0	 0.0	 3	   0.000000	  50.220100	   0.000000; % NG
	2	 0.0	 0.0	 3	   0.000000	  16.856819	   0.000000; % NG
	2	 0.0	 0.0	 3	   0.000000	  26.647613	   0.000000; % COW
	2	 0.0	 0.0	 3	   0.000000	   8.353581	   0.000000; % NUC
	2	 0.0	 0.0	 3	   0.000000	  21.248206	   0.000000; % COW
	2	 0.0	 0.0	 3	   0.000000	  45.050646	   0.000000; % NG
	2	 0.0	 0.0	 3	   0.000000	  64.807170	   0.000000; % NG
	2	 0.0	 0.0	 3	   0.000000	 146.187607	   0.000000; % PEL
	2	 0.0	 0.0	 3	   0.000000	  13.088210	   0.000000; % COW
	2	 0.0	 0.0	 3	   0.000000	  45.022507	   0.000000; % NG
	2	 0.0	 0.0	 3	   0.000000	  58.063517	   0.000000; % NG
	2	 0.0	 0.0	 3	   0.000000	  35.743336	   0.000000; % NG
	2	 0.0	 0.0	 3	   0.000000	  31.898192	   0.000000; % NG
	2	 0.0	 0.0	 3	   0.000000	  54.039491	   0.000000; % NG
	2	 0.0	 0.0	 3	   0.000000	  52.782153	   0.000000; % NG
...
];

%% branch data
%	fbus	tbus	r	x	b	rateA	rateB	rateC	ratio	angle	status	angmin	angmax
mpc.branch = [
	5147	 3097	 0.0006	 0.00616	 0.0	 823.0	 5104	 5104	 0.0	 0.0	 1	 -30.0	 30.0;
...